
     RDKit          3D

 22 25  0  0  0  0  0  0  0  0999 V2000
    0.0000    0.0000    0.0000 C   0  0  0  0  0  0  0  0  0  0  0  0
    0.0000    0.0000    0.0000 C   0  0  0  0  0  0  0  0  0  0  0  0
    0.0000    0.0000    0.0000 C   0  0  0  0  0  0  0  0  0  0  0  0
    0.0000    0.0000    0.0000 C   0  0  0  0  0  0  0  0  0  0  0  0
    0.0000    0.0000    0.0000 C   0  0  0  0  0  0  0  0  0  0  0  0
    0.0000    0.0000    0.0000 C   0  0  0  0  0  0  0  0  0  0  0  0
    0.0000    0.0000    0.0000 C   0  0  0  0  0  0  0  0  0  0  0  0
    0.0000    0.0000    0.0000 C   0  0  0  0  0  0  0  0  0  0  0  0
    0.0000    0.0000    0.0000 C   0  0  0  0  0  0  0  0  0  0  0  0
    0.0000    0.0000    0.0000 C   0  0  0  0  0  0  0  0  0  0  0  0
    0.0000    0.0000    0.0000 C   0  0  0  0  0  0  0  0  0  0  0  0
    0.0000    0.0000    0.0000 C   0  0  0  0  0  0  0  0  0  0  0  0
    0.0000    0.0000    0.0000 O   0  0  0  0  0  0  0  0  0  0  0  0
    0.0000    0.0000    0.0000 C   0  0  0  0  0  0  0  0  0  0  0  0
    0.0000    0.0000    0.0000 C   0  0  0  0  0  0  0  0  0  0  0  0
    0.0000    0.0000    0.0000 C   0  0  0  0  0  0  0  0  0  0  0  0
    0.0000    0.0000    0.0000 C   0  0  0  0  0  0  0  0  0  0  0  0
    0.0000    0.0000    0.0000 C   0  0  0  0  0  0  0  0  0  0  0  0
    0.0000    0.0000    0.0000 C   0  0  0  0  0  0  0  0  0  0  0  0
    0.0000    0.0000    0.0000 C   0  0  0  0  0  0  0  0  0  0  0  0
    0.0000    0.0000    0.0000 C   0  0  0  0  0  0  0  0  0  0  0  0
    0.0000    0.0000    0.0000 O   0  0  0  0  0  0  0  0  0  0  0  0
  1  2  1  0
  2  3  1  0
  3  4  1  0
  4  5  1  0
  5  6  1  0
  6  7  1  0
  7  8  1  0
  8  9  1  0
  9 10  1  0
 10 11  1  0
 11 12  3  0
 10 13  1  0
  6 14  1  0
 14 15  1  0
 15 16  1  0
 16 17  2  0
 17 18  1  0
 18 19  2  0
 19 20  1  0
 20 21  2  0
 20 22  1  0
  7  2  1  0
 10  2  1  0
 17  5  1  0
 21 16  1  0
M  END
>  <CASRN>  (1) 
57-63-6

>  <Name>  (1) 
Ethinyl Estradiol

>  <Active>  (1) 
59

>  <Inactive>  (1) 
0

>  <Bioactivity>  (1) 
Active

>  <Min LEL>  (1) 
0.001

>  <Max HDT>  (1) 
nan

>  <Class>  (1) 
1

>  <Code>  (1) 
C57636

>  <NVS_NR_hER>  (1) 
1.0

>  <NVS_NR_cAR>  (1) 
1.0

>  <NVS_NR_hAR>  (1) 
1.0

>  <NVS_NR_hGR>  (1) 
1.0

>  <NVS_NR_hPR>  (1) 
1.0

>  <NVS_NR_rAR>  (1) 
1.0

>  <OT_ER_ERaERb_1440>  (1) 
1.0

>  <OT_FXR_FXRSRC1_0480>  (1) 
1.0

>  <OT_PPARg_PPARgSRC1_1440>  (1) 
0.0

>  <OT_FXR_FXRSRC1_1440>  (1) 
1.0

>  <OT_NURR1_NURR1RXRa_0480>  (1) 
0.0

>  <OT_NURR1_NURR1RXRa_1440>  (1) 
0.0

>  <OT_PPARg_PPARgSRC1_0480>  (1) 
0.0

>  <OT_AR_ARELUC_AG_1440>  (1) 
1.0

>  <OT_ERa_EREGFP_0120>  (1) 
1.0

>  <BSK_3C_HLADR_down>  (1) 
1.0

>  <BSK_3C_Vis_down>  (1) 
1.0

>  <BSK_3C_uPAR_down>  (1) 
1.0

>  <ATG_CAR_TRANS_up>  (1) 
0.0

>  <ATG_E2F_CIS_dn>  (1) 
0.0

>  <ATG_EGR_CIS_up>  (1) 
1.0

>  <ATG_ERa_TRANS_dn>  (1) 
0.0

>  <ATG_ERa_TRANS_up>  (1) 
1.0

>  <ATG_FXR_TRANS_dn>  (1) 
0.0

>  <ATG_GLI_CIS_dn>  (1) 
0.0

>  <ATG_GRE_CIS_up>  (1) 
0.0

>  <ATG_LXRa_TRANS_dn>  (1) 
0.0

>  <ATG_LXRa_TRANS_up>  (1) 
0.0

>  <ATG_NRF1_CIS_up>  (1) 
0.0

>  <ATG_NURR1_TRANS_up>  (1) 
0.0

>  <ATG_Sox_CIS_dn>  (1) 
0.0

>  <ATG_Sox_CIS_up>  (1) 
1.0

>  <ATG_Sp1_CIS_up>  (1) 
1.0

>  <ATG_TGFb_CIS_up>  (1) 
0.0

>  <TOX21_ARE_BLA_agonist_ratio>  (1) 
0.0

>  <TOX21_RAR_LUC_Antagonist>  (1) 
1.0

>  <ATG_LXRb_TRANS_dn>  (1) 
0.0

>  <ATG_CAR_TRANS_dn>  (1) 
1.0

>  <ATG_BRE_CIS_dn>  (1) 
0.0

>  <ATG_E2F_CIS_up>  (1) 
0.0

>  <TOX21_TSHR_Agonist_ratio>  (1) 
1.0

>  <ACEA_ER_80hr>  (1) 
1.0

>  <TOX21_CAR_Agonist_viabillity>  (1) 
0.0

>  <TOX21_PR_BLA_Agonist_viability>  (1) 
0.0

>  <TOX21_RT_HEPG2_FLO_40hr_ctrl_viability>  (1) 
1.0

>  <TOX21_AhR_LUC_Agonist_viability>  (1) 
0.0

>  <TOX21_ERR_viability>  (1) 
1.0

>  <TOX21_p53_BLA_p3_viability>  (1) 
0.0

>  <NVS_NR_bER>  (1) 
1.0

>  <ACEA_AR_agonist_80hr>  (1) 
1.0

>  <ACEA_AR_agonist_AUC_viability>  (1) 
0.0

>  <ACEA_AR_antagonist_80hr>  (1) 
1.0

>  <ACEA_AR_antagonist_AUC_viability>  (1) 
1.0

>  <ACEA_ER_AUC_viability>  (1) 
0.0

>  <APR_HepG2_CellCycleArrest_24h_dn>  (1) 
1.0

>  <APR_HepG2_CellCycleArrest_24h_up>  (1) 
0.0

>  <APR_HepG2_CellCycleArrest_72h_dn>  (1) 
1.0

>  <APR_HepG2_CellCycleArrest_72h_up>  (1) 
0.0

>  <APR_HepG2_CellLoss_24h_dn>  (1) 
1.0

>  <APR_HepG2_CellLoss_24h_up>  (1) 
0.0

>  <APR_HepG2_CellLoss_72h_dn>  (1) 
1.0

>  <APR_HepG2_CellLoss_72h_up>  (1) 
0.0

>  <APR_HepG2_MicrotubuleCSK_24h_dn>  (1) 
0.0

>  <APR_HepG2_MicrotubuleCSK_24h_up>  (1) 
0.0

>  <APR_HepG2_MicrotubuleCSK_72h_dn>  (1) 
0.0

>  <APR_HepG2_MicrotubuleCSK_72h_up>  (1) 
0.0

>  <APR_HepG2_MitoMass_24h_dn>  (1) 
0.0

>  <APR_HepG2_MitoMass_24h_up>  (1) 
0.0

>  <APR_HepG2_MitoMass_72h_dn>  (1) 
1.0

>  <APR_HepG2_MitoMass_72h_up>  (1) 
0.0

>  <APR_HepG2_MitoMembPot_24h_dn>  (1) 
0.0

>  <APR_HepG2_MitoMembPot_24h_up>  (1) 
0.0

>  <APR_HepG2_MitoMembPot_72h_dn>  (1) 
0.0

>  <APR_HepG2_MitoMembPot_72h_up>  (1) 
0.0

>  <APR_HepG2_MitoticArrest_24h_dn>  (1) 
0.0

>  <APR_HepG2_MitoticArrest_24h_up>  (1) 
1.0

>  <APR_HepG2_MitoticArrest_72h_dn>  (1) 
0.0

>  <APR_HepG2_MitoticArrest_72h_up>  (1) 
1.0

>  <APR_HepG2_NuclearSize_24h_dn>  (1) 
0.0

>  <APR_HepG2_NuclearSize_24h_up>  (1) 
0.0

>  <APR_HepG2_NuclearSize_72h_dn>  (1) 
0.0

>  <APR_HepG2_NuclearSize_72h_up>  (1) 
0.0

>  <APR_HepG2_OxidativeStress_24h_dn>  (1) 
0.0

>  <APR_HepG2_OxidativeStress_24h_up>  (1) 
1.0

>  <APR_HepG2_OxidativeStress_72h_dn>  (1) 
0.0

>  <APR_HepG2_OxidativeStress_72h_up>  (1) 
1.0

>  <APR_HepG2_StressKinase_24h_dn>  (1) 
0.0

>  <APR_HepG2_StressKinase_24h_up>  (1) 
1.0

>  <APR_HepG2_StressKinase_72h_dn>  (1) 
0.0

>  <APR_HepG2_StressKinase_72h_up>  (1) 
0.0

>  <APR_HepG2_p53Act_24h_dn>  (1) 
0.0

>  <APR_HepG2_p53Act_24h_up>  (1) 
1.0

>  <APR_HepG2_p53Act_72h_dn>  (1) 
0.0

>  <APR_HepG2_p53Act_72h_up>  (1) 
1.0

>  <ATG_AP_1_CIS_dn>  (1) 
0.0

>  <ATG_AP_1_CIS_up>  (1) 
0.0

>  <ATG_AP_2_CIS_dn>  (1) 
1.0

>  <ATG_AP_2_CIS_up>  (1) 
0.0

>  <ATG_AR_TRANS_dn>  (1) 
0.0

>  <ATG_AR_TRANS_up>  (1) 
0.0

>  <ATG_Ahr_CIS_dn>  (1) 
0.0

>  <ATG_Ahr_CIS_up>  (1) 
0.0

>  <ATG_BRE_CIS_up>  (1) 
1.0

>  <ATG_CMV_CIS_dn>  (1) 
0.0

>  <ATG_CMV_CIS_up>  (1) 
1.0

>  <ATG_CRE_CIS_dn>  (1) 
0.0

>  <ATG_CRE_CIS_up>  (1) 
1.0

>  <ATG_C_EBP_CIS_dn>  (1) 
0.0

>  <ATG_C_EBP_CIS_up>  (1) 
0.0

>  <ATG_DR4_LXR_CIS_dn>  (1) 
1.0

>  <ATG_DR4_LXR_CIS_up>  (1) 
0.0

>  <ATG_DR5_CIS_dn>  (1) 
0.0

>  <ATG_DR5_CIS_up>  (1) 
1.0

>  <ATG_EGR_CIS_dn>  (1) 
0.0

>  <ATG_ERE_CIS_dn>  (1) 
0.0

>  <ATG_ERE_CIS_up>  (1) 
1.0

>  <ATG_ERRa_TRANS_dn>  (1) 
0.0

>  <ATG_ERRa_TRANS_up>  (1) 
0.0

>  <ATG_ERRg_TRANS_dn>  (1) 
0.0

>  <ATG_ERRg_TRANS_up>  (1) 
0.0

>  <ATG_E_Box_CIS_dn>  (1) 
1.0

>  <ATG_E_Box_CIS_up>  (1) 
0.0

>  <ATG_Ets_CIS_dn>  (1) 
0.0

>  <ATG_Ets_CIS_up>  (1) 
0.0

>  <ATG_FXR_TRANS_up>  (1) 
0.0

>  <ATG_FoxA2_CIS_dn>  (1) 
0.0

>  <ATG_FoxA2_CIS_up>  (1) 
0.0

>  <ATG_FoxO_CIS_dn>  (1) 
1.0

>  <ATG_FoxO_CIS_up>  (1) 
0.0

>  <ATG_GAL4_TRANS_dn>  (1) 
0.0

>  <ATG_GAL4_TRANS_up>  (1) 
0.0

>  <ATG_GATA_CIS_dn>  (1) 
0.0

>  <ATG_GATA_CIS_up>  (1) 
0.0

>  <ATG_GLI_CIS_up>  (1) 
1.0

>  <ATG_GRE_CIS_dn>  (1) 
0.0

>  <ATG_GR_TRANS_dn>  (1) 
0.0

>  <ATG_GR_TRANS_up>  (1) 
0.0

>  <ATG_HIF1a_CIS_dn>  (1) 
0.0

>  <ATG_HIF1a_CIS_up>  (1) 
1.0

>  <ATG_HNF4a_TRANS_dn>  (1) 
0.0

>  <ATG_HNF4a_TRANS_up>  (1) 
0.0

>  <ATG_HNF6_CIS_dn>  (1) 
0.0

>  <ATG_HNF6_CIS_up>  (1) 
0.0

>  <ATG_HSE_CIS_dn>  (1) 
0.0

>  <ATG_HSE_CIS_up>  (1) 
1.0

>  <ATG_IR1_CIS_dn>  (1) 
1.0

>  <ATG_IR1_CIS_up>  (1) 
0.0

>  <ATG_ISRE_CIS_dn>  (1) 
1.0

>  <ATG_ISRE_CIS_up>  (1) 
0.0

>  <ATG_LXRb_TRANS_up>  (1) 
0.0

>  <ATG_MRE_CIS_dn>  (1) 
0.0

>  <ATG_MRE_CIS_up>  (1) 
1.0

>  <ATG_M_06_CIS_dn>  (1) 
0.0

>  <ATG_M_06_CIS_up>  (1) 
0.0

>  <ATG_M_06_TRANS_dn>  (1) 
0.0

>  <ATG_M_06_TRANS_up>  (1) 
0.0

>  <ATG_M_19_CIS_dn>  (1) 
0.0

>  <ATG_M_19_CIS_up>  (1) 
0.0

>  <ATG_M_19_TRANS_dn>  (1) 
0.0

>  <ATG_M_19_TRANS_up>  (1) 
0.0

>  <ATG_M_32_CIS_dn>  (1) 
0.0

>  <ATG_M_32_CIS_up>  (1) 
0.0

>  <ATG_M_32_TRANS_dn>  (1) 
0.0

>  <ATG_M_32_TRANS_up>  (1) 
0.0

>  <ATG_M_61_CIS_dn>  (1) 
0.0

>  <ATG_M_61_CIS_up>  (1) 
0.0

>  <ATG_M_61_TRANS_dn>  (1) 
0.0

>  <ATG_M_61_TRANS_up>  (1) 
0.0

>  <ATG_Myb_CIS_dn>  (1) 
0.0

>  <ATG_Myb_CIS_up>  (1) 
0.0

>  <ATG_Myc_CIS_dn>  (1) 
0.0

>  <ATG_Myc_CIS_up>  (1) 
0.0

>  <ATG_NFI_CIS_dn>  (1) 
0.0

>  <ATG_NFI_CIS_up>  (1) 
1.0

>  <ATG_NF_kB_CIS_dn>  (1) 
0.0

>  <ATG_NF_kB_CIS_up>  (1) 
1.0

>  <ATG_NRF1_CIS_dn>  (1) 
0.0

>  <ATG_NRF2_ARE_CIS_dn>  (1) 
0.0

>  <ATG_NRF2_ARE_CIS_up>  (1) 
0.0

>  <ATG_NURR1_TRANS_dn>  (1) 
0.0

>  <ATG_Oct_MLP_CIS_dn>  (1) 
0.0

>  <ATG_Oct_MLP_CIS_up>  (1) 
1.0

>  <ATG_PBREM_CIS_dn>  (1) 
0.0

>  <ATG_PBREM_CIS_up>  (1) 
0.0

>  <ATG_PPARa_TRANS_dn>  (1) 
0.0

>  <ATG_PPARa_TRANS_up>  (1) 
0.0

>  <ATG_PPARd_TRANS_dn>  (1) 
0.0

>  <ATG_PPARd_TRANS_up>  (1) 
0.0

>  <ATG_PPARg_TRANS_dn>  (1) 
0.0

>  <ATG_PPARg_TRANS_up>  (1) 
0.0

>  <ATG_PPRE_CIS_dn>  (1) 
0.0

>  <ATG_PPRE_CIS_up>  (1) 
0.0

>  <ATG_PXRE_CIS_dn>  (1) 
0.0

>  <ATG_PXRE_CIS_up>  (1) 
1.0

>  <ATG_PXR_TRANS_dn>  (1) 
0.0

>  <ATG_PXR_TRANS_up>  (1) 
1.0

>  <ATG_Pax6_CIS_dn>  (1) 
0.0

>  <ATG_Pax6_CIS_up>  (1) 
1.0

>  <ATG_RARa_TRANS_dn>  (1) 
0.0

>  <ATG_RARa_TRANS_up>  (1) 
0.0

>  <ATG_RARb_TRANS_dn>  (1) 
0.0

>  <ATG_RARb_TRANS_up>  (1) 
0.0

>  <ATG_RARg_TRANS_dn>  (1) 
0.0

>  <ATG_RARg_TRANS_up>  (1) 
0.0

>  <ATG_RORE_CIS_dn>  (1) 
0.0

>  <ATG_RORE_CIS_up>  (1) 
1.0

>  <ATG_RORb_TRANS_dn>  (1) 
0.0

>  <ATG_RORb_TRANS_up>  (1) 
0.0

>  <ATG_RORg_TRANS_dn>  (1) 
0.0

>  <ATG_RORg_TRANS_up>  (1) 
0.0

>  <ATG_RXRa_TRANS_dn>  (1) 
0.0

>  <ATG_RXRa_TRANS_up>  (1) 
0.0

>  <ATG_RXRb_TRANS_dn>  (1) 
0.0

>  <ATG_RXRb_TRANS_up>  (1) 
0.0

>  <ATG_SREBP_CIS_dn>  (1) 
0.0

>  <ATG_SREBP_CIS_up>  (1) 
1.0

>  <ATG_STAT3_CIS_dn>  (1) 
0.0

>  <ATG_STAT3_CIS_up>  (1) 
0.0

>  <ATG_Sp1_CIS_dn>  (1) 
0.0

>  <ATG_TAL_CIS_dn>  (1) 
0.0

>  <ATG_TAL_CIS_up>  (1) 
1.0

>  <ATG_TA_CIS_dn>  (1) 
0.0

>  <ATG_TA_CIS_up>  (1) 
0.0

>  <ATG_TCF_b_cat_CIS_dn>  (1) 
1.0

>  <ATG_TCF_b_cat_CIS_up>  (1) 
0.0

>  <ATG_TGFb_CIS_dn>  (1) 
0.0

>  <ATG_THRa1_TRANS_dn>  (1) 
0.0

>  <ATG_THRa1_TRANS_up>  (1) 
0.0

>  <ATG_VDRE_CIS_dn>  (1) 
0.0

>  <ATG_VDRE_CIS_up>  (1) 
1.0

>  <ATG_VDR_TRANS_dn>  (1) 
0.0

>  <ATG_VDR_TRANS_up>  (1) 
0.0

>  <ATG_XTT_Cytotoxicity_up>  (1) 
0.0

>  <ATG_Xbp1_CIS_dn>  (1) 
0.0

>  <ATG_Xbp1_CIS_up>  (1) 
1.0

>  <ATG_p53_CIS_dn>  (1) 
1.0

>  <ATG_p53_CIS_up>  (1) 
0.0

>  <BSK_3C_Eselectin_down>  (1) 
1.0

>  <BSK_3C_Eselectin_up>  (1) 
0.0

>  <BSK_3C_HLADR_up>  (1) 
0.0

>  <BSK_3C_ICAM1_down>  (1) 
0.0

>  <BSK_3C_ICAM1_up>  (1) 
0.0

>  <BSK_3C_IL8_down>  (1) 
1.0

>  <BSK_3C_IL8_up>  (1) 
0.0

>  <BSK_3C_MCP1_down>  (1) 
1.0

>  <BSK_3C_MCP1_up>  (1) 
0.0

>  <BSK_3C_MIG_down>  (1) 
0.0

>  <BSK_3C_MIG_up>  (1) 
0.0

>  <BSK_3C_Proliferation_down>  (1) 
1.0

>  <BSK_3C_Proliferation_up>  (1) 
0.0

>  <BSK_3C_SRB_down>  (1) 
1.0

>  <BSK_3C_SRB_up>  (1) 
0.0

>  <BSK_3C_Thrombomodulin_down>  (1) 
0.0

>  <BSK_3C_Thrombomodulin_up>  (1) 
0.0

>  <BSK_3C_TissueFactor_down>  (1) 
1.0

>  <BSK_3C_TissueFactor_up>  (1) 
0.0

>  <BSK_3C_VCAM1_down>  (1) 
0.0

>  <BSK_3C_VCAM1_up>  (1) 
0.0

>  <BSK_3C_Vis_up>  (1) 
0.0

>  <BSK_3C_uPAR_up>  (1) 
0.0

>  <BSK_4H_Eotaxin3_down>  (1) 
0.0

>  <BSK_4H_Eotaxin3_up>  (1) 
0.0

>  <BSK_4H_MCP1_down>  (1) 
0.0

>  <BSK_4H_MCP1_up>  (1) 
0.0

>  <BSK_4H_Pselectin_down>  (1) 
0.0

>  <BSK_4H_Pselectin_up>  (1) 
0.0

>  <BSK_4H_SRB_down>  (1) 
1.0

>  <BSK_4H_SRB_up>  (1) 
0.0

>  <BSK_4H_VCAM1_down>  (1) 
0.0

>  <BSK_4H_VCAM1_up>  (1) 
0.0

>  <BSK_4H_VEGFRII_down>  (1) 
0.0

>  <BSK_4H_VEGFRII_up>  (1) 
0.0

>  <BSK_4H_uPAR_down>  (1) 
1.0

>  <BSK_4H_uPAR_up>  (1) 
0.0

>  <BSK_BE3C_HLADR_down>  (1) 
0.0

>  <BSK_BE3C_HLADR_up>  (1) 
0.0

>  <BSK_BE3C_IL1a_down>  (1) 
0.0

>  <BSK_BE3C_IL1a_up>  (1) 
0.0

>  <BSK_BE3C_IP10_down>  (1) 
0.0

>  <BSK_BE3C_IP10_up>  (1) 
0.0

>  <BSK_BE3C_MIG_down>  (1) 
0.0

>  <BSK_BE3C_MIG_up>  (1) 
0.0

>  <BSK_BE3C_MMP1_down>  (1) 
1.0

>  <BSK_BE3C_MMP1_up>  (1) 
0.0

>  <BSK_BE3C_PAI1_down>  (1) 
0.0

>  <BSK_BE3C_PAI1_up>  (1) 
0.0

>  <BSK_BE3C_SRB_down>  (1) 
0.0

>  <BSK_BE3C_SRB_up>  (1) 
0.0

>  <BSK_BE3C_TGFb1_down>  (1) 
1.0

>  <BSK_BE3C_TGFb1_up>  (1) 
0.0

>  <BSK_BE3C_tPA_down>  (1) 
0.0

>  <BSK_BE3C_tPA_up>  (1) 
0.0

>  <BSK_BE3C_uPAR_down>  (1) 
0.0

>  <BSK_BE3C_uPAR_up>  (1) 
0.0

>  <BSK_BE3C_uPA_down>  (1) 
0.0

>  <BSK_BE3C_uPA_up>  (1) 
0.0

>  <BSK_CASM3C_HLADR_down>  (1) 
0.0

>  <BSK_CASM3C_HLADR_up>  (1) 
0.0

>  <BSK_CASM3C_IL6_down>  (1) 
1.0

>  <BSK_CASM3C_IL6_up>  (1) 
0.0

>  <BSK_CASM3C_IL8_down>  (1) 
0.0

>  <BSK_CASM3C_IL8_up>  (1) 
0.0

>  <BSK_CASM3C_LDLR_down>  (1) 
0.0

>  <BSK_CASM3C_LDLR_up>  (1) 
1.0

>  <BSK_CASM3C_MCP1_down>  (1) 
0.0

>  <BSK_CASM3C_MCP1_up>  (1) 
1.0

>  <BSK_CASM3C_MCSF_down>  (1) 
0.0

>  <BSK_CASM3C_MCSF_up>  (1) 
0.0

>  <BSK_CASM3C_MIG_down>  (1) 
0.0

>  <BSK_CASM3C_MIG_up>  (1) 
0.0

>  <BSK_CASM3C_Proliferation_down>  (1) 
1.0

>  <BSK_CASM3C_Proliferation_up>  (1) 
0.0

>  <BSK_CASM3C_SAA_down>  (1) 
0.0

>  <BSK_CASM3C_SAA_up>  (1) 
1.0

>  <BSK_CASM3C_SRB_down>  (1) 
0.0

>  <BSK_CASM3C_SRB_up>  (1) 
0.0

>  <BSK_CASM3C_Thrombomodulin_down>  (1) 
0.0

>  <BSK_CASM3C_Thrombomodulin_up>  (1) 
0.0

>  <BSK_CASM3C_TissueFactor_down>  (1) 
0.0

>  <BSK_CASM3C_TissueFactor_up>  (1) 
0.0

>  <BSK_CASM3C_VCAM1_down>  (1) 
0.0

>  <BSK_CASM3C_VCAM1_up>  (1) 
0.0

>  <BSK_CASM3C_uPAR_down>  (1) 
0.0

>  <BSK_CASM3C_uPAR_up>  (1) 
0.0

>  <BSK_KF3CT_ICAM1_down>  (1) 
0.0

>  <BSK_KF3CT_ICAM1_up>  (1) 
0.0

>  <BSK_KF3CT_IL1a_down>  (1) 
0.0

>  <BSK_KF3CT_IL1a_up>  (1) 
0.0

>  <BSK_KF3CT_IP10_down>  (1) 
0.0

>  <BSK_KF3CT_IP10_up>  (1) 
0.0

>  <BSK_KF3CT_MCP1_down>  (1) 
0.0

>  <BSK_KF3CT_MCP1_up>  (1) 
0.0

>  <BSK_KF3CT_MMP9_down>  (1) 
0.0

>  <BSK_KF3CT_MMP9_up>  (1) 
0.0

>  <BSK_KF3CT_SRB_down>  (1) 
0.0

>  <BSK_KF3CT_SRB_up>  (1) 
0.0

>  <BSK_KF3CT_TGFb1_down>  (1) 
0.0

>  <BSK_KF3CT_TGFb1_up>  (1) 
0.0

>  <BSK_KF3CT_TIMP2_down>  (1) 
0.0

>  <BSK_KF3CT_TIMP2_up>  (1) 
0.0

>  <BSK_KF3CT_uPA_down>  (1) 
0.0

>  <BSK_KF3CT_uPA_up>  (1) 
0.0

>  <BSK_LPS_CD40_down>  (1) 
0.0

>  <BSK_LPS_CD40_up>  (1) 
0.0

>  <BSK_LPS_Eselectin_down>  (1) 
0.0

>  <BSK_LPS_Eselectin_up>  (1) 
0.0

>  <BSK_LPS_IL1a_down>  (1) 
1.0

>  <BSK_LPS_IL1a_up>  (1) 
0.0

>  <BSK_LPS_IL8_down>  (1) 
1.0

>  <BSK_LPS_IL8_up>  (1) 
0.0

>  <BSK_LPS_MCP1_down>  (1) 
1.0

>  <BSK_LPS_MCP1_up>  (1) 
0.0

>  <BSK_LPS_MCSF_down>  (1) 
1.0

>  <BSK_LPS_MCSF_up>  (1) 
0.0

>  <BSK_LPS_PGE2_down>  (1) 
0.0

>  <BSK_LPS_PGE2_up>  (1) 
0.0

>  <BSK_LPS_SRB_down>  (1) 
1.0

>  <BSK_LPS_SRB_up>  (1) 
0.0

>  <BSK_LPS_TNFa_down>  (1) 
0.0

>  <BSK_LPS_TNFa_up>  (1) 
1.0

>  <BSK_LPS_TissueFactor_down>  (1) 
0.0

>  <BSK_LPS_TissueFactor_up>  (1) 
0.0

>  <BSK_LPS_VCAM1_down>  (1) 
1.0

>  <BSK_LPS_VCAM1_up>  (1) 
0.0

>  <BSK_SAg_CD38_down>  (1) 
0.0

>  <BSK_SAg_CD38_up>  (1) 
0.0

>  <BSK_SAg_CD40_down>  (1) 
0.0

>  <BSK_SAg_CD40_up>  (1) 
0.0

>  <BSK_SAg_CD69_down>  (1) 
0.0

>  <BSK_SAg_CD69_up>  (1) 
0.0

>  <BSK_SAg_Eselectin_down>  (1) 
0.0

>  <BSK_SAg_Eselectin_up>  (1) 
0.0

>  <BSK_SAg_IL8_down>  (1) 
0.0

>  <BSK_SAg_IL8_up>  (1) 
0.0

>  <BSK_SAg_MCP1_down>  (1) 
1.0

>  <BSK_SAg_MCP1_up>  (1) 
0.0

>  <BSK_SAg_MIG_down>  (1) 
0.0

>  <BSK_SAg_MIG_up>  (1) 
0.0

>  <BSK_SAg_PBMCCytotoxicity_down>  (1) 
0.0

>  <BSK_SAg_PBMCCytotoxicity_up>  (1) 
0.0

>  <BSK_SAg_Proliferation_down>  (1) 
1.0

>  <BSK_SAg_Proliferation_up>  (1) 
0.0

>  <BSK_SAg_SRB_down>  (1) 
1.0

>  <BSK_SAg_SRB_up>  (1) 
0.0

>  <BSK_hDFCGF_CollagenIII_down>  (1) 
0.0

>  <BSK_hDFCGF_CollagenIII_up>  (1) 
0.0

>  <BSK_hDFCGF_EGFR_down>  (1) 
0.0

>  <BSK_hDFCGF_EGFR_up>  (1) 
0.0

>  <BSK_hDFCGF_IL8_down>  (1) 
0.0

>  <BSK_hDFCGF_IL8_up>  (1) 
0.0

>  <BSK_hDFCGF_IP10_down>  (1) 
0.0

>  <BSK_hDFCGF_IP10_up>  (1) 
0.0

>  <BSK_hDFCGF_MCSF_down>  (1) 
0.0

>  <BSK_hDFCGF_MCSF_up>  (1) 
0.0

>  <BSK_hDFCGF_MIG_down>  (1) 
0.0

>  <BSK_hDFCGF_MIG_up>  (1) 
0.0

>  <BSK_hDFCGF_MMP1_down>  (1) 
0.0

>  <BSK_hDFCGF_MMP1_up>  (1) 
0.0

>  <BSK_hDFCGF_PAI1_down>  (1) 
0.0

>  <BSK_hDFCGF_PAI1_up>  (1) 
0.0

>  <BSK_hDFCGF_Proliferation_down>  (1) 
1.0

>  <BSK_hDFCGF_Proliferation_up>  (1) 
0.0

>  <BSK_hDFCGF_SRB_down>  (1) 
0.0

>  <BSK_hDFCGF_SRB_up>  (1) 
0.0

>  <BSK_hDFCGF_TIMP1_down>  (1) 
0.0

>  <BSK_hDFCGF_TIMP1_up>  (1) 
0.0

>  <BSK_hDFCGF_VCAM1_down>  (1) 
0.0

>  <BSK_hDFCGF_VCAM1_up>  (1) 
0.0

>  <CEETOX_H295R_11DCORT_dn>  (1) 
1.0

>  <CEETOX_H295R_11DCORT_up>  (1) 
0.0

>  <CEETOX_H295R_ANDR_dn>  (1) 
0.0

>  <CEETOX_H295R_ANDR_up>  (1) 
0.0

>  <CEETOX_H295R_CORTIC_dn>  (1) 
1.0

>  <CEETOX_H295R_CORTIC_up>  (1) 
0.0

>  <CEETOX_H295R_CORTISOL_dn>  (1) 
1.0

>  <CEETOX_H295R_CORTISOL_up>  (1) 
0.0

>  <CEETOX_H295R_DOC_dn>  (1) 
1.0

>  <CEETOX_H295R_DOC_up>  (1) 
0.0

>  <CEETOX_H295R_ESTRADIOL_dn>  (1) 
0.0

>  <CEETOX_H295R_ESTRADIOL_up>  (1) 
0.0

>  <CEETOX_H295R_ESTRONE_dn>  (1) 
0.0

>  <CEETOX_H295R_ESTRONE_up>  (1) 
0.0

>  <CEETOX_H295R_MTT_cell_viability_dn>  (1) 
0.0

>  <CEETOX_H295R_MTT_cell_viability_up>  (1) 
0.0

>  <CEETOX_H295R_OHPREG_dn>  (1) 
0.0

>  <CEETOX_H295R_OHPREG_up>  (1) 
1.0

>  <CEETOX_H295R_OHPROG_dn>  (1) 
1.0

>  <CEETOX_H295R_OHPROG_up>  (1) 
0.0

>  <CEETOX_H295R_PROG_dn>  (1) 
1.0

>  <CEETOX_H295R_PROG_up>  (1) 
0.0

>  <CEETOX_H295R_TESTO_dn>  (1) 
0.0

>  <CEETOX_H295R_TESTO_up>  (1) 
0.0

>  <NCCT_HEK293T_CellTiterGLO>  (1) 
1.0

>  <NCCT_QuantiLum_inhib_2_dn>  (1) 
0.0

>  <NCCT_QuantiLum_inhib_dn>  (1) 
1.0

>  <NCCT_TPO_AUR_dn>  (1) 
1.0

>  <NHEERL_ZF_144hpf_TERATOSCORE_up>  (1) 
1.0

>  <NIS_HEK293T_CTG_Cytotoxicity>  (1) 
1.0

>  <NIS_RAIU_inhibition>  (1) 
0.0

>  <NVS_ADME_hCYP1A1>  (1) 
0.0

>  <NVS_ADME_hCYP1A1_Activator>  (1) 
0.0

>  <NVS_ADME_hCYP2B6>  (1) 
0.0

>  <NVS_ADME_hCYP2B6_Activator>  (1) 
0.0

>  <NVS_ADME_hCYP2C18>  (1) 
1.0

>  <NVS_ADME_hCYP2C18_Activator>  (1) 
0.0

>  <NVS_ADME_hCYP2C19>  (1) 
1.0

>  <NVS_ADME_hCYP2C19_Activator>  (1) 
0.0

>  <NVS_ADME_hCYP2C9>  (1) 
1.0

>  <NVS_ADME_hCYP2C9_Activator>  (1) 
0.0

>  <NVS_ADME_hCYP2J2>  (1) 
1.0

>  <NVS_ADME_hCYP2J2_Activator>  (1) 
0.0

>  <NVS_ADME_hCYP3A4>  (1) 
1.0

>  <NVS_ADME_hCYP3A4_Activator>  (1) 
0.0

>  <NVS_ADME_hCYP3A5>  (1) 
1.0

>  <NVS_ADME_hCYP3A5_Activator>  (1) 
0.0

>  <NVS_ADME_rCYP2A2>  (1) 
1.0

>  <NVS_ADME_rCYP2A2_Activator>  (1) 
0.0

>  <NVS_ADME_rCYP2B1>  (1) 
1.0

>  <NVS_ADME_rCYP2B1_Activator>  (1) 
0.0

>  <NVS_ADME_rCYP2C11>  (1) 
1.0

>  <NVS_ADME_rCYP2C11_Activator>  (1) 
0.0

>  <NVS_ADME_rCYP2C6>  (1) 
1.0

>  <NVS_ADME_rCYP2C6_Activator>  (1) 
0.0

>  <NVS_ADME_rCYP3A1>  (1) 
1.0

>  <NVS_ADME_rCYP3A1_Activator>  (1) 
0.0

>  <NVS_ADME_rCYP3A2>  (1) 
1.0

>  <NVS_ADME_rCYP3A2_Activator>  (1) 
0.0

>  <NVS_ENZ_hAKT1>  (1) 
0.0

>  <NVS_ENZ_hAKT1_Activator>  (1) 
0.0

>  <NVS_ENZ_hSIRT1>  (1) 
0.0

>  <NVS_ENZ_hSIRT1_Activator>  (1) 
0.0

>  <NVS_ENZ_hSRC>  (1) 
1.0

>  <NVS_ENZ_hSRC_Activator>  (1) 
0.0

>  <NVS_ENZ_hVEGFR3>  (1) 
0.0

>  <NVS_ENZ_hVEGFR3_Activator>  (1) 
0.0

>  <NVS_ENZ_rMAOAC>  (1) 
0.0

>  <NVS_ENZ_rMAOAC_Activator>  (1) 
0.0

>  <NVS_GPCR_g5HT4>  (1) 
1.0

>  <NVS_GPCR_gLTD4>  (1) 
0.0

>  <NVS_GPCR_hAdoRA2a>  (1) 
1.0

>  <NVS_GPCR_hOpiate_mu>  (1) 
1.0

>  <NVS_GPCR_rOpiate_NonSelective>  (1) 
1.0

>  <NVS_GPCR_rOpiate_NonSelectiveNa>  (1) 
0.0

>  <NVS_GPCR_rV1>  (1) 
1.0

>  <NVS_IC_rCaBTZCHL>  (1) 
1.0

>  <NVS_IC_rNaCh_site2>  (1) 
0.0

>  <NVS_MP_hPBR>  (1) 
1.0

>  <NVS_MP_rPBR>  (1) 
1.0

>  <NVS_NR_bPR>  (1) 
1.0

>  <NVS_NR_hCAR_Antagonist>  (1) 
1.0

>  <NVS_NR_hPPARa>  (1) 
0.0

>  <NVS_NR_hPPARg>  (1) 
0.0

>  <NVS_NR_hPXR>  (1) 
1.0

>  <NVS_NR_rMR>  (1) 
1.0

>  <NVS_TR_gDAT>  (1) 
1.0

>  <NVS_TR_hDAT>  (1) 
1.0

>  <NVS_TR_hNET>  (1) 
1.0

>  <NVS_TR_hSERT>  (1) 
1.0

>  <NVS_TR_rNET>  (1) 
1.0

>  <NVS_TR_rSERT>  (1) 
1.0

>  <OT_AR_ARSRC1_0480>  (1) 
1.0

>  <OT_AR_ARSRC1_0960>  (1) 
1.0

>  <OT_ER_ERaERa_0480>  (1) 
1.0

>  <OT_ER_ERaERa_1440>  (1) 
1.0

>  <OT_ER_ERaERb_0480>  (1) 
1.0

>  <OT_ER_ERbERb_0480>  (1) 
1.0

>  <OT_ER_ERbERb_1440>  (1) 
1.0

>  <OT_ERa_EREGFP_0480>  (1) 
1.0

>  <TOX21_AP1_BLA_Agonist_ch1>  (1) 
0.0

>  <TOX21_AP1_BLA_Agonist_ch2>  (1) 
0.0

>  <TOX21_AP1_BLA_Agonist_ratio>  (1) 
0.0

>  <TOX21_AP1_BLA_Agonist_viability>  (1) 
0.0

>  <TOX21_ARE_BLA_Agonist_ch1>  (1) 
0.0

>  <TOX21_ARE_BLA_Agonist_ch2>  (1) 
1.0

>  <TOX21_ARE_BLA_agonist_viability>  (1) 
0.0

>  <TOX21_AR_BLA_Agonist_ch1>  (1) 
0.0

>  <TOX21_AR_BLA_Agonist_ch2>  (1) 
1.0

>  <TOX21_AR_BLA_Agonist_ratio>  (1) 
1.0

>  <TOX21_AR_BLA_Antagonist_ch1>  (1) 
0.0

>  <TOX21_AR_BLA_Antagonist_ch2>  (1) 
1.0

>  <TOX21_AR_BLA_Antagonist_ratio>  (1) 
1.0

>  <TOX21_AR_BLA_Antagonist_viability>  (1) 
1.0

>  <TOX21_AR_LUC_MDAKB2_Agonist>  (1) 
0.0

>  <TOX21_AR_LUC_MDAKB2_Agonist_3uM_Nilutamide>  (1) 
0.0

>  <TOX21_AR_LUC_MDAKB2_Agonist_3uM_Nilutamide_viability>  (1) 
0.0

>  <TOX21_AR_LUC_MDAKB2_Antagonist_0.5nM_R1881>  (1) 
1.0

>  <TOX21_AR_LUC_MDAKB2_Antagonist_0.5nM_R1881_viability>  (1) 
0.0

>  <TOX21_AR_LUC_MDAKB2_Antagonist_10nM_R1881>  (1) 
1.0

>  <TOX21_AR_LUC_MDAKB2_Antagonist_10nM_R1881_viability>  (1) 
0.0

>  <TOX21_AhR_LUC_Agonist>  (1) 
0.0

>  <TOX21_Aromatase_Inhibition>  (1) 
0.0

>  <TOX21_Aromatase_Inhibition_viability>  (1) 
0.0

>  <TOX21_AutoFluor_HEK293_Cell_blue>  (1) 
0.0

>  <TOX21_AutoFluor_HEK293_Cell_green>  (1) 
0.0

>  <TOX21_AutoFluor_HEK293_Cell_red>  (1) 
0.0

>  <TOX21_AutoFluor_HEK293_Media_blue>  (1) 
0.0

>  <TOX21_AutoFluor_HEK293_Media_green>  (1) 
0.0

>  <TOX21_AutoFluor_HEK293_Media_red>  (1) 
0.0

>  <TOX21_AutoFluor_HEPG2_Cell_blue>  (1) 
0.0

>  <TOX21_AutoFluor_HEPG2_Cell_green>  (1) 
0.0

>  <TOX21_AutoFluor_HEPG2_Cell_red>  (1) 
0.0

>  <TOX21_AutoFluor_HEPG2_Media_blue>  (1) 
0.0

>  <TOX21_AutoFluor_HEPG2_Media_green>  (1) 
0.0

>  <TOX21_AutoFluor_HEPG2_Media_red>  (1) 
0.0

>  <TOX21_CAR_Agonist>  (1) 
0.0

>  <TOX21_CAR_Antagonist>  (1) 
1.0

>  <TOX21_CAR_Antagonist_viability>  (1) 
0.0

>  <TOX21_CASP3_CHO>  (1) 
0.0

>  <TOX21_CASP3_CHO_viability>  (1) 
1.0

>  <TOX21_CASP3_HEPG2>  (1) 
0.0

>  <TOX21_CASP3_HEPG2_viability>  (1) 
0.0

>  <TOX21_DT40>  (1) 
1.0

>  <TOX21_DT40_100>  (1) 
1.0

>  <TOX21_DT40_657>  (1) 
1.0

>  <TOX21_ELG1_LUC_Agonist>  (1) 
0.0

>  <TOX21_ELG1_LUC_Agonist_viability>  (1) 
0.0

>  <TOX21_ERR_Agonist>  (1) 
0.0

>  <TOX21_ERR_Antagonist>  (1) 
1.0

>  <TOX21_ERa_BLA_Agonist_ch1>  (1) 
1.0

>  <TOX21_ERa_BLA_Agonist_ch2>  (1) 
1.0

>  <TOX21_ERa_BLA_Agonist_ratio>  (1) 
1.0

>  <TOX21_ERa_BLA_Antagonist_ch1>  (1) 
0.0

>  <TOX21_ERa_BLA_Antagonist_ch2>  (1) 
0.0

>  <TOX21_ERa_BLA_Antagonist_ratio>  (1) 
0.0

>  <TOX21_ERa_BLA_Antagonist_viability>  (1) 
0.0

>  <TOX21_ERa_LUC_VM7_Agonist>  (1) 
1.0

>  <TOX21_ERa_LUC_VM7_Agonist_10nM_ICI182780>  (1) 
1.0

>  <TOX21_ERa_LUC_VM7_Agonist_10nM_ICI182780_viability>  (1) 
0.0

>  <TOX21_ERa_LUC_VM7_Antagonist_0.1nM_E2>  (1) 
1.0

>  <TOX21_ERa_LUC_VM7_Antagonist_0.1nM_E2_viability>  (1) 
0.0

>  <TOX21_ERa_LUC_VM7_Antagonist_0.5nM_E2>  (1) 
0.0

>  <TOX21_ERa_LUC_VM7_Antagonist_0.5nM_E2_viability>  (1) 
0.0

>  <TOX21_ERb_BLA_Agonist_ch1>  (1) 
0.0

>  <TOX21_ERb_BLA_Agonist_ch2>  (1) 
1.0

>  <TOX21_ERb_BLA_Agonist_ratio>  (1) 
1.0

>  <TOX21_ERb_BLA_Agonist_viability>  (1) 
1.0

>  <TOX21_ERb_BLA_Antagonist_ch1>  (1) 
0.0

>  <TOX21_ERb_BLA_Antagonist_ch2>  (1) 
1.0

>  <TOX21_ERb_BLA_Antagonist_ratio>  (1) 
1.0

>  <TOX21_ERb_BLA_Antagonist_viability>  (1) 
1.0

>  <TOX21_ESRE_BLA_ch1>  (1) 
0.0

>  <TOX21_ESRE_BLA_ch2>  (1) 
0.0

>  <TOX21_ESRE_BLA_ratio>  (1) 
0.0

>  <TOX21_ESRE_BLA_viability>  (1) 
0.0

>  <TOX21_FXR_BLA_Antagonist_ch1>  (1) 
1.0

>  <TOX21_FXR_BLA_Antagonist_ch2>  (1) 
1.0

>  <TOX21_FXR_BLA_agonist_ch1>  (1) 
0.0

>  <TOX21_FXR_BLA_agonist_ch2>  (1) 
0.0

>  <TOX21_FXR_BLA_agonist_ratio>  (1) 
0.0

>  <TOX21_FXR_BLA_agonist_viability>  (1) 
0.0

>  <TOX21_FXR_BLA_antagonist_ratio>  (1) 
1.0

>  <TOX21_FXR_BLA_antagonist_viability>  (1) 
0.0

>  <TOX21_GR_BLA_Agonist_ch1>  (1) 
0.0

>  <TOX21_GR_BLA_Agonist_ch2>  (1) 
0.0

>  <TOX21_GR_BLA_Agonist_ratio>  (1) 
0.0

>  <TOX21_GR_BLA_Antagonist_ch1>  (1) 
0.0

>  <TOX21_GR_BLA_Antagonist_ch2>  (1) 
1.0

>  <TOX21_GR_BLA_Antagonist_ratio>  (1) 
1.0

>  <TOX21_GR_BLA_Antagonist_viability>  (1) 
1.0

>  <TOX21_H2AX_HTRF_CHO_Agonist_ch1>  (1) 
0.0

>  <TOX21_H2AX_HTRF_CHO_Agonist_ch2>  (1) 
0.0

>  <TOX21_H2AX_HTRF_CHO_Agonist_ratio>  (1) 
0.0

>  <TOX21_H2AX_HTRF_CHO_viability>  (1) 
1.0

>  <TOX21_HDAC_Inhibition>  (1) 
0.0

>  <TOX21_HDAC_Inhibition_viability>  (1) 
0.0

>  <TOX21_HRE_BLA_Agonist_ch1>  (1) 
0.0

>  <TOX21_HRE_BLA_Agonist_ch2>  (1) 
0.0

>  <TOX21_HRE_BLA_Agonist_ratio>  (1) 
0.0

>  <TOX21_HRE_BLA_Agonist_viability>  (1) 
0.0

>  <TOX21_HSE_BLA_agonist_ch1>  (1) 
0.0

>  <TOX21_HSE_BLA_agonist_ch2>  (1) 
0.0

>  <TOX21_HSE_BLA_agonist_ratio>  (1) 
0.0

>  <TOX21_HSE_BLA_agonist_viability>  (1) 
0.0

>  <TOX21_LUC_Biochem>  (1) 
0.0

>  <TOX21_MMP_fitc>  (1) 
0.0

>  <TOX21_MMP_ratio_down>  (1) 
1.0

>  <TOX21_MMP_ratio_up>  (1) 
0.0

>  <TOX21_MMP_rhodamine>  (1) 
1.0

>  <TOX21_MMP_viability>  (1) 
0.0

>  <TOX21_NFkB_BLA_agonist_ch1>  (1) 
0.0

>  <TOX21_NFkB_BLA_agonist_ch2>  (1) 
0.0

>  <TOX21_NFkB_BLA_agonist_ratio>  (1) 
0.0

>  <TOX21_NFkB_BLA_agonist_viability>  (1) 
0.0

>  <TOX21_PGC_ERR_Agonist>  (1) 
0.0

>  <TOX21_PGC_ERR_Antagonist>  (1) 
0.0

>  <TOX21_PGC_ERR_viability>  (1) 
1.0

>  <TOX21_PPARd_BLA_Agonist_viability>  (1) 
0.0

>  <TOX21_PPARd_BLA_Antagonist_ch1>  (1) 
0.0

>  <TOX21_PPARd_BLA_Antagonist_ch2>  (1) 
0.0

>  <TOX21_PPARd_BLA_agonist_ch1>  (1) 
0.0

>  <TOX21_PPARd_BLA_agonist_ch2>  (1) 
0.0

>  <TOX21_PPARd_BLA_agonist_ratio>  (1) 
0.0

>  <TOX21_PPARd_BLA_antagonist_ratio>  (1) 
0.0

>  <TOX21_PPARd_BLA_antagonist_viability>  (1) 
0.0

>  <TOX21_PPARg_BLA_Agonist_ch1>  (1) 
0.0

>  <TOX21_PPARg_BLA_Agonist_ch2>  (1) 
0.0

>  <TOX21_PPARg_BLA_Agonist_ratio>  (1) 
0.0

>  <TOX21_PPARg_BLA_Antagonist_ch1>  (1) 
0.0

>  <TOX21_PPARg_BLA_Antagonist_ch2>  (1) 
0.0

>  <TOX21_PPARg_BLA_antagonist_ratio>  (1) 
0.0

>  <TOX21_PPARg_BLA_antagonist_viability>  (1) 
0.0

>  <TOX21_PR_BLA_Agonist_ch1>  (1) 
1.0

>  <TOX21_PR_BLA_Agonist_ch2>  (1) 
1.0

>  <TOX21_PR_BLA_Agonist_ratio>  (1) 
1.0

>  <TOX21_PR_BLA_Antagonist_ch1>  (1) 
0.0

>  <TOX21_PR_BLA_Antagonist_ch2>  (1) 
1.0

>  <TOX21_PR_BLA_Antagonist_ratio>  (1) 
1.0

>  <TOX21_PR_BLA_Antagonist_viability>  (1) 
1.0

>  <TOX21_PXR_Agonist>  (1) 
0.0

>  <TOX21_PXR_viability>  (1) 
1.0

>  <TOX21_RAR_LUC_Agonist>  (1) 
0.0

>  <TOX21_RAR_LUC_Agonist_viability>  (1) 
0.0

>  <TOX21_RAR_LUC_Antagonist_viability>  (1) 
0.0

>  <TOX21_RORg_LUC_CHO_Antagonist>  (1) 
0.0

>  <TOX21_RORg_LUC_CHO_Antagonist_viability>  (1) 
0.0

>  <TOX21_RT_HEK293_FLO_00hr_viability>  (1) 
0.0

>  <TOX21_RT_HEK293_FLO_08hr_viability>  (1) 
1.0

>  <TOX21_RT_HEK293_FLO_16hr_viability>  (1) 
1.0

>  <TOX21_RT_HEK293_FLO_24hr_viability>  (1) 
1.0

>  <TOX21_RT_HEK293_FLO_32hr_viability>  (1) 
1.0

>  <TOX21_RT_HEK293_FLO_40hr_viability>  (1) 
1.0

>  <TOX21_RT_HEK293_GLO_00hr_viability>  (1) 
0.0

>  <TOX21_RT_HEK293_GLO_08hr_viability>  (1) 
0.0

>  <TOX21_RT_HEK293_GLO_16hr_viability>  (1) 
1.0

>  <TOX21_RT_HEK293_GLO_24hr_viability>  (1) 
1.0

>  <TOX21_RT_HEK293_GLO_32hr_viability>  (1) 
1.0

>  <TOX21_RT_HEK293_GLO_40hr_viability>  (1) 
1.0

>  <TOX21_RT_HEPG2_FLO_00hr_ctrl_viability>  (1) 
0.0

>  <TOX21_RT_HEPG2_FLO_08hr_viability>  (1) 
0.0

>  <TOX21_RT_HEPG2_FLO_16hr_ctrl_viability>  (1) 
0.0

>  <TOX21_RT_HEPG2_FLO_24hr_viability>  (1) 
1.0

>  <TOX21_RT_HEPG2_FLO_32hr_ctrl_viability>  (1) 
1.0

>  <TOX21_RT_HEPG2_GLO_00hr_ctrl_viability>  (1) 
0.0

>  <TOX21_RT_HEPG2_GLO_08hr_ctrl_viability>  (1) 
0.0

>  <TOX21_RT_HEPG2_GLO_16hr_ctrl_viability>  (1) 
0.0

>  <TOX21_RT_HEPG2_GLO_24hr_ctrl_viability>  (1) 
0.0

>  <TOX21_RT_HEPG2_GLO_32hr_ctrl_viability>  (1) 
0.0

>  <TOX21_RT_HEPG2_GLO_40hr_viability>  (1) 
0.0

>  <TOX21_RXR_BLA_Agonist_ch1>  (1) 
0.0

>  <TOX21_RXR_BLA_Agonist_ch2>  (1) 
0.0

>  <TOX21_RXR_BLA_Agonist_ratio>  (1) 
0.0

>  <TOX21_RXR_BLA_Agonist_viability>  (1) 
0.0

>  <TOX21_SBE_BLA_Agonist_ch1>  (1) 
0.0

>  <TOX21_SBE_BLA_Agonist_ch2>  (1) 
0.0

>  <TOX21_SBE_BLA_Agonist_ratio>  (1) 
0.0

>  <TOX21_SBE_BLA_Agonist_viability>  (1) 
0.0

>  <TOX21_SBE_BLA_Antagonist_ch1>  (1) 
0.0

>  <TOX21_SBE_BLA_Antagonist_ch2>  (1) 
1.0

>  <TOX21_SBE_BLA_Antagonist_ratio>  (1) 
1.0

>  <TOX21_SBE_BLA_Antagonist_viability>  (1) 
0.0

>  <TOX21_SSH_3T3_GLI3_Agonist>  (1) 
0.0

>  <TOX21_SSH_3T3_GLI3_Agonist_viability>  (1) 
0.0

>  <TOX21_SSH_3T3_GLI3_Antagonist>  (1) 
1.0

>  <TOX21_SSH_3T3_GLI3_Antagonist_viability>  (1) 
0.0

>  <TOX21_TRA_COA_Antagonist_Followup_ch1>  (1) 
0.0

>  <TOX21_TRA_COA_Antagonist_Followup_ch2>  (1) 
0.0

>  <TOX21_TRA_COA_Antagonist_Followup_ratio>  (1) 
0.0

>  <TOX21_TRB_BLA_Antagonist_Followup_ch1>  (1) 
0.0

>  <TOX21_TRB_BLA_Antagonist_Followup_ch2>  (1) 
0.0

>  <TOX21_TRB_BLA_Antagonist_Followup_ratio>  (1) 
1.0

>  <TOX21_TRB_BLA_Antagonist_Followup_viability>  (1) 
0.0

>  <TOX21_TRB_COA_Antagonist_Followup_ch1>  (1) 
0.0

>  <TOX21_TRB_COA_Antagonist_Followup_ch2>  (1) 
0.0

>  <TOX21_TRB_COA_Antagonist_Followup_ratio>  (1) 
0.0

>  <TOX21_TRHR_HEK293_Agonist>  (1) 
0.0

>  <TOX21_TRHR_HEK293_Antagonist>  (1) 
0.0

>  <TOX21_TR_COA_Antagonist_Followup_ch1>  (1) 
0.0

>  <TOX21_TR_COA_Antagonist_Followup_ch2>  (1) 
0.0

>  <TOX21_TR_COA_Antagonist_Followup_ratio>  (1) 
0.0

>  <TOX21_TR_LUC_GH3_Agonist>  (1) 
0.0

>  <TOX21_TR_LUC_GH3_Antagonist>  (1) 
1.0

>  <TOX21_TR_LUC_GH3_Antagonist_Followup>  (1) 
1.0

>  <TOX21_TR_LUC_GH3_Antagonist_viability>  (1) 
0.0

>  <TOX21_TR_RXR_BLA_Antagonist_Followup_ch1>  (1) 
0.0

>  <TOX21_TR_RXR_BLA_Antagonist_Followup_ch2>  (1) 
0.0

>  <TOX21_TR_RXR_BLA_Antagonist_Followup_ratio>  (1) 
1.0

>  <TOX21_TR_RXR_BLA_Antagonist_Followup_viability>  (1) 
0.0

>  <TOX21_TSHR_Agonist_ch2>  (1) 
0.0

>  <TOX21_TSHR_Antagonist_ch2>  (1) 
0.0

>  <TOX21_TSHR_Antagonist_ratio>  (1) 
0.0

>  <TOX21_TSHR_HTRF_Agonist_ch1>  (1) 
1.0

>  <TOX21_TSHR_HTRF_Antagonist_ch1>  (1) 
0.0

>  <TOX21_TSHR_wt_HTRF_ch1>  (1) 
0.0

>  <TOX21_TSHR_wt_ch2>  (1) 
0.0

>  <TOX21_TSHR_wt_ratio>  (1) 
0.0

>  <TOX21_VDR_BLA_Agonist_viability>  (1) 
0.0

>  <TOX21_VDR_BLA_Antagonist_ch1>  (1) 
0.0

>  <TOX21_VDR_BLA_Antagonist_ch2>  (1) 
0.0

>  <TOX21_VDR_BLA_agonist_ch1>  (1) 
0.0

>  <TOX21_VDR_BLA_agonist_ch2>  (1) 
0.0

>  <TOX21_VDR_BLA_agonist_ratio>  (1) 
0.0

>  <TOX21_VDR_BLA_antagonist_ratio>  (1) 
0.0

>  <TOX21_VDR_BLA_antagonist_viability>  (1) 
0.0

>  <TOX21_p53_BLA_p1_ch1>  (1) 
0.0

>  <TOX21_p53_BLA_p1_ch2>  (1) 
1.0

>  <TOX21_p53_BLA_p1_ratio>  (1) 
1.0

>  <TOX21_p53_BLA_p1_viability>  (1) 
0.0

>  <TOX21_p53_BLA_p2_ch1>  (1) 
0.0

>  <TOX21_p53_BLA_p2_ch2>  (1) 
1.0

>  <TOX21_p53_BLA_p2_ratio>  (1) 
1.0

>  <TOX21_p53_BLA_p2_viability>  (1) 
0.0

>  <TOX21_p53_BLA_p3_ch1>  (1) 
0.0

>  <TOX21_p53_BLA_p3_ch2>  (1) 
1.0

>  <TOX21_p53_BLA_p3_ratio>  (1) 
1.0

>  <TOX21_p53_BLA_p4_ch1>  (1) 
0.0

>  <TOX21_p53_BLA_p4_ch2>  (1) 
1.0

>  <TOX21_p53_BLA_p4_ratio>  (1) 
1.0

>  <TOX21_p53_BLA_p4_viability>  (1) 
0.0

>  <TOX21_p53_BLA_p5_ch1>  (1) 
0.0

>  <TOX21_p53_BLA_p5_ch2>  (1) 
1.0

>  <TOX21_p53_BLA_p5_ratio>  (1) 
1.0

>  <TOX21_p53_BLA_p5_viability>  (1) 
0.0

>  <Tanguay_ZF_120hpf_AXIS_up>  (1) 
0.0

>  <Tanguay_ZF_120hpf_ActivityScore>  (1) 
0.0

>  <Tanguay_ZF_120hpf_BRAI_up>  (1) 
0.0

>  <Tanguay_ZF_120hpf_CFIN_up>  (1) 
0.0

>  <Tanguay_ZF_120hpf_CIRC_up>  (1) 
0.0

>  <Tanguay_ZF_120hpf_EYE_up>  (1) 
0.0

>  <Tanguay_ZF_120hpf_JAW_up>  (1) 
0.0

>  <Tanguay_ZF_120hpf_MORT_up>  (1) 
0.0

>  <Tanguay_ZF_120hpf_NC_up>  (1) 
0.0

>  <Tanguay_ZF_120hpf_OTIC_up>  (1) 
0.0

>  <Tanguay_ZF_120hpf_PE_up>  (1) 
0.0

>  <Tanguay_ZF_120hpf_PFIN_up>  (1) 
0.0

>  <Tanguay_ZF_120hpf_PIG_up>  (1) 
0.0

>  <Tanguay_ZF_120hpf_SNOU_up>  (1) 
0.0

>  <Tanguay_ZF_120hpf_SOMI_up>  (1) 
0.0

>  <Tanguay_ZF_120hpf_SWIM_up>  (1) 
0.0

>  <Tanguay_ZF_120hpf_TRUN_up>  (1) 
0.0

>  <Tanguay_ZF_120hpf_TR_up>  (1) 
0.0

>  <Tanguay_ZF_120hpf_YSE_up>  (1) 
0.0

>  <UPITT_HCI_U2OS_AR_TIF2_Nucleoli_Agonist>  (1) 
0.0

>  <UPITT_HCI_U2OS_AR_TIF2_Nucleoli_Antagonist>  (1) 
0.0

>  <UPITT_HCI_U2OS_AR_TIF2_Nucleoli_Cytoplasm_Ratio_Agonist>  (1) 
0.0

>  <UPITT_HCI_U2OS_AR_TIF2_Nucleoli_Cytoplasm_Ratio_Antagonist>  (1) 
0.0

>  <NVS_NR_mERa>  (1) 
1.0

$$$$

     RDKit          3D

 20 21  0  0  0  0  0  0  0  0999 V2000
    0.0000    0.0000    0.0000 C   0  0  0  0  0  0  0  0  0  0  0  0
    0.0000    0.0000    0.0000 C   0  0  0  0  0  0  0  0  0  0  0  0
    0.0000    0.0000    0.0000 C   0  0  0  0  0  0  0  0  0  0  0  0
    0.0000    0.0000    0.0000 C   0  0  0  0  0  0  0  0  0  0  0  0
    0.0000    0.0000    0.0000 C   0  0  0  0  0  0  0  0  0  0  0  0
    0.0000    0.0000    0.0000 C   0  0  0  0  0  0  0  0  0  0  0  0
    0.0000    0.0000    0.0000 C   0  0  0  0  0  0  0  0  0  0  0  0
    0.0000    0.0000    0.0000 C   0  0  0  0  0  0  0  0  0  0  0  0
    0.0000    0.0000    0.0000 C   0  0  0  0  0  0  0  0  0  0  0  0
    0.0000    0.0000    0.0000 C   0  0  0  0  0  0  0  0  0  0  0  0
    0.0000    0.0000    0.0000 C   0  0  0  0  0  0  0  0  0  0  0  0
    0.0000    0.0000    0.0000 C   0  0  0  0  0  0  0  0  0  0  0  0
    0.0000    0.0000    0.0000 O   0  0  0  0  0  0  0  0  0  0  0  0
    0.0000    0.0000    0.0000 C   0  0  0  0  0  0  0  0  0  0  0  0
    0.0000    0.0000    0.0000 C   0  0  0  0  0  0  0  0  0  0  0  0
    0.0000    0.0000    0.0000 C   0  0  0  0  0  0  0  0  0  0  0  0
    0.0000    0.0000    0.0000 C   0  0  0  0  0  0  0  0  0  0  0  0
    0.0000    0.0000    0.0000 C   0  0  0  0  0  0  0  0  0  0  0  0
    0.0000    0.0000    0.0000 C   0  0  0  0  0  0  0  0  0  0  0  0
    0.0000    0.0000    0.0000 O   0  0  0  0  0  0  0  0  0  0  0  0
  1  2  1  0
  2  3  1  0
  3  4  2  3
  4  5  1  0
  5  6  1  0
  4  7  1  0
  7  8  2  0
  8  9  1  0
  9 10  2  0
 10 11  1  0
 11 12  2  0
 10 13  1  0
  3 14  1  0
 14 15  2  0
 15 16  1  0
 16 17  2  0
 17 18  1  0
 18 19  2  0
 17 20  1  0
 12  7  1  0
 19 14  1  0
M  END
>  <CASRN>  (2) 
56-53-1

>  <Name>  (2) 
Diethylstilbestrol (DES)

>  <Active>  (2) 
8

>  <Inactive>  (2) 
1

>  <Bioactivity>  (2) 
Active

>  <Min LEL>  (2) 
5e-05

>  <Max HDT>  (2) 
5e-05

>  <Class>  (2) 
1

>  <Code>  (2) 
C56531

>  <NVS_NR_hER>  (2) 
1.0

>  <NVS_NR_cAR>  (2) 
1.0

>  <NVS_NR_hAR>  (2) 
1.0

>  <NVS_NR_hGR>  (2) 
1.0

>  <NVS_NR_hPR>  (2) 
0.0

>  <NVS_NR_rAR>  (2) 
1.0

>  <OT_ER_ERaERb_1440>  (2) 
1.0

>  <OT_FXR_FXRSRC1_0480>  (2) 
0.0

>  <OT_PPARg_PPARgSRC1_1440>  (2) 
0.0

>  <OT_FXR_FXRSRC1_1440>  (2) 
0.0

>  <OT_NURR1_NURR1RXRa_0480>  (2) 
0.0

>  <OT_NURR1_NURR1RXRa_1440>  (2) 
0.0

>  <OT_PPARg_PPARgSRC1_0480>  (2) 
0.0

>  <OT_AR_ARELUC_AG_1440>  (2) 
0.0

>  <OT_ERa_EREGFP_0120>  (2) 
1.0

>  <BSK_3C_HLADR_down>  (2) 
1.0

>  <BSK_3C_Vis_down>  (2) 
1.0

>  <BSK_3C_uPAR_down>  (2) 
1.0

>  <ATG_CAR_TRANS_up>  (2) 
0.0

>  <ATG_E2F_CIS_dn>  (2) 
0.0

>  <ATG_EGR_CIS_up>  (2) 
1.0

>  <ATG_ERa_TRANS_dn>  (2) 
0.0

>  <ATG_ERa_TRANS_up>  (2) 
1.0

>  <ATG_FXR_TRANS_dn>  (2) 
0.0

>  <ATG_GLI_CIS_dn>  (2) 
0.0

>  <ATG_GRE_CIS_up>  (2) 
0.0

>  <ATG_LXRa_TRANS_dn>  (2) 
0.0

>  <ATG_LXRa_TRANS_up>  (2) 
0.0

>  <ATG_NRF1_CIS_up>  (2) 
0.0

>  <ATG_NURR1_TRANS_up>  (2) 
0.0

>  <ATG_Sox_CIS_dn>  (2) 
0.0

>  <ATG_Sox_CIS_up>  (2) 
0.0

>  <ATG_Sp1_CIS_up>  (2) 
0.0

>  <ATG_TGFb_CIS_up>  (2) 
0.0

>  <TOX21_ARE_BLA_agonist_ratio>  (2) 
1.0

>  <TOX21_RAR_LUC_Antagonist>  (2) 
0.0

>  <ATG_LXRb_TRANS_dn>  (2) 
0.0

>  <ATG_CAR_TRANS_dn>  (2) 
0.0

>  <ATG_BRE_CIS_dn>  (2) 
0.0

>  <ATG_E2F_CIS_up>  (2) 
0.0

>  <TOX21_TSHR_Agonist_ratio>  (2) 
1.0

>  <ACEA_ER_80hr>  (2) 
1.0

>  <TOX21_CAR_Agonist_viabillity>  (2) 
1.0

>  <TOX21_PR_BLA_Agonist_viability>  (2) 
1.0

>  <TOX21_RT_HEPG2_FLO_40hr_ctrl_viability>  (2) 
0.0

>  <TOX21_AhR_LUC_Agonist_viability>  (2) 
0.0

>  <TOX21_ERR_viability>  (2) 
1.0

>  <TOX21_p53_BLA_p3_viability>  (2) 
0.0

>  <NVS_NR_bER>  (2) 
1.0

>  <ACEA_AR_agonist_80hr>  (2) 
0.0

>  <ACEA_AR_agonist_AUC_viability>  (2) 
1.0

>  <ACEA_AR_antagonist_80hr>  (2) 
1.0

>  <ACEA_AR_antagonist_AUC_viability>  (2) 
1.0

>  <ACEA_ER_AUC_viability>  (2) 
1.0

>  <APR_HepG2_CellCycleArrest_24h_dn>  (2) 
1.0

>  <APR_HepG2_CellCycleArrest_24h_up>  (2) 
0.0

>  <APR_HepG2_CellCycleArrest_72h_dn>  (2) 
1.0

>  <APR_HepG2_CellCycleArrest_72h_up>  (2) 
0.0

>  <APR_HepG2_CellLoss_24h_dn>  (2) 
1.0

>  <APR_HepG2_CellLoss_24h_up>  (2) 
0.0

>  <APR_HepG2_CellLoss_72h_dn>  (2) 
1.0

>  <APR_HepG2_CellLoss_72h_up>  (2) 
0.0

>  <APR_HepG2_MicrotubuleCSK_24h_dn>  (2) 
0.0

>  <APR_HepG2_MicrotubuleCSK_24h_up>  (2) 
0.0

>  <APR_HepG2_MicrotubuleCSK_72h_dn>  (2) 
0.0

>  <APR_HepG2_MicrotubuleCSK_72h_up>  (2) 
0.0

>  <APR_HepG2_MitoMass_24h_dn>  (2) 
1.0

>  <APR_HepG2_MitoMass_24h_up>  (2) 
0.0

>  <APR_HepG2_MitoMass_72h_dn>  (2) 
0.0

>  <APR_HepG2_MitoMass_72h_up>  (2) 
1.0

>  <APR_HepG2_MitoMembPot_24h_dn>  (2) 
0.0

>  <APR_HepG2_MitoMembPot_24h_up>  (2) 
0.0

>  <APR_HepG2_MitoMembPot_72h_dn>  (2) 
1.0

>  <APR_HepG2_MitoMembPot_72h_up>  (2) 
0.0

>  <APR_HepG2_MitoticArrest_24h_dn>  (2) 
0.0

>  <APR_HepG2_MitoticArrest_24h_up>  (2) 
1.0

>  <APR_HepG2_MitoticArrest_72h_dn>  (2) 
0.0

>  <APR_HepG2_MitoticArrest_72h_up>  (2) 
1.0

>  <APR_HepG2_NuclearSize_24h_dn>  (2) 
0.0

>  <APR_HepG2_NuclearSize_24h_up>  (2) 
0.0

>  <APR_HepG2_NuclearSize_72h_dn>  (2) 
0.0

>  <APR_HepG2_NuclearSize_72h_up>  (2) 
0.0

>  <APR_HepG2_OxidativeStress_24h_dn>  (2) 
0.0

>  <APR_HepG2_OxidativeStress_24h_up>  (2) 
1.0

>  <APR_HepG2_OxidativeStress_72h_dn>  (2) 
0.0

>  <APR_HepG2_OxidativeStress_72h_up>  (2) 
1.0

>  <APR_HepG2_StressKinase_24h_dn>  (2) 
0.0

>  <APR_HepG2_StressKinase_24h_up>  (2) 
0.0

>  <APR_HepG2_StressKinase_72h_dn>  (2) 
0.0

>  <APR_HepG2_StressKinase_72h_up>  (2) 
1.0

>  <APR_HepG2_p53Act_24h_dn>  (2) 
0.0

>  <APR_HepG2_p53Act_24h_up>  (2) 
1.0

>  <APR_HepG2_p53Act_72h_dn>  (2) 
0.0

>  <APR_HepG2_p53Act_72h_up>  (2) 
1.0

>  <ATG_AP_1_CIS_dn>  (2) 
0.0

>  <ATG_AP_1_CIS_up>  (2) 
1.0

>  <ATG_AP_2_CIS_dn>  (2) 
0.0

>  <ATG_AP_2_CIS_up>  (2) 
0.0

>  <ATG_AR_TRANS_dn>  (2) 
0.0

>  <ATG_AR_TRANS_up>  (2) 
0.0

>  <ATG_Ahr_CIS_dn>  (2) 
0.0

>  <ATG_Ahr_CIS_up>  (2) 
0.0

>  <ATG_BRE_CIS_up>  (2) 
0.0

>  <ATG_CMV_CIS_dn>  (2) 
0.0

>  <ATG_CMV_CIS_up>  (2) 
1.0

>  <ATG_CRE_CIS_dn>  (2) 
0.0

>  <ATG_CRE_CIS_up>  (2) 
0.0

>  <ATG_C_EBP_CIS_dn>  (2) 
0.0

>  <ATG_C_EBP_CIS_up>  (2) 
0.0

>  <ATG_DR4_LXR_CIS_dn>  (2) 
1.0

>  <ATG_DR4_LXR_CIS_up>  (2) 
0.0

>  <ATG_DR5_CIS_dn>  (2) 
0.0

>  <ATG_DR5_CIS_up>  (2) 
0.0

>  <ATG_EGR_CIS_dn>  (2) 
0.0

>  <ATG_ERE_CIS_dn>  (2) 
0.0

>  <ATG_ERE_CIS_up>  (2) 
1.0

>  <ATG_ERRa_TRANS_dn>  (2) 
0.0

>  <ATG_ERRa_TRANS_up>  (2) 
0.0

>  <ATG_ERRg_TRANS_dn>  (2) 
0.0

>  <ATG_ERRg_TRANS_up>  (2) 
0.0

>  <ATG_E_Box_CIS_dn>  (2) 
0.0

>  <ATG_E_Box_CIS_up>  (2) 
0.0

>  <ATG_Ets_CIS_dn>  (2) 
0.0

>  <ATG_Ets_CIS_up>  (2) 
0.0

>  <ATG_FXR_TRANS_up>  (2) 
0.0

>  <ATG_FoxA2_CIS_dn>  (2) 
0.0

>  <ATG_FoxA2_CIS_up>  (2) 
0.0

>  <ATG_FoxO_CIS_dn>  (2) 
0.0

>  <ATG_FoxO_CIS_up>  (2) 
0.0

>  <ATG_GAL4_TRANS_dn>  (2) 
0.0

>  <ATG_GAL4_TRANS_up>  (2) 
0.0

>  <ATG_GATA_CIS_dn>  (2) 
0.0

>  <ATG_GATA_CIS_up>  (2) 
0.0

>  <ATG_GLI_CIS_up>  (2) 
0.0

>  <ATG_GRE_CIS_dn>  (2) 
0.0

>  <ATG_GR_TRANS_dn>  (2) 
0.0

>  <ATG_GR_TRANS_up>  (2) 
0.0

>  <ATG_HIF1a_CIS_dn>  (2) 
0.0

>  <ATG_HIF1a_CIS_up>  (2) 
0.0

>  <ATG_HNF4a_TRANS_dn>  (2) 
0.0

>  <ATG_HNF4a_TRANS_up>  (2) 
0.0

>  <ATG_HNF6_CIS_dn>  (2) 
0.0

>  <ATG_HNF6_CIS_up>  (2) 
0.0

>  <ATG_HSE_CIS_dn>  (2) 
0.0

>  <ATG_HSE_CIS_up>  (2) 
1.0

>  <ATG_IR1_CIS_dn>  (2) 
1.0

>  <ATG_IR1_CIS_up>  (2) 
0.0

>  <ATG_ISRE_CIS_dn>  (2) 
0.0

>  <ATG_ISRE_CIS_up>  (2) 
0.0

>  <ATG_LXRb_TRANS_up>  (2) 
0.0

>  <ATG_MRE_CIS_dn>  (2) 
0.0

>  <ATG_MRE_CIS_up>  (2) 
1.0

>  <ATG_M_06_CIS_dn>  (2) 
0.0

>  <ATG_M_06_CIS_up>  (2) 
0.0

>  <ATG_M_06_TRANS_dn>  (2) 
0.0

>  <ATG_M_06_TRANS_up>  (2) 
0.0

>  <ATG_M_19_CIS_dn>  (2) 
0.0

>  <ATG_M_19_CIS_up>  (2) 
0.0

>  <ATG_M_19_TRANS_dn>  (2) 
0.0

>  <ATG_M_19_TRANS_up>  (2) 
0.0

>  <ATG_M_32_CIS_dn>  (2) 
0.0

>  <ATG_M_32_CIS_up>  (2) 
0.0

>  <ATG_M_32_TRANS_dn>  (2) 
0.0

>  <ATG_M_32_TRANS_up>  (2) 
0.0

>  <ATG_M_61_CIS_dn>  (2) 
0.0

>  <ATG_M_61_CIS_up>  (2) 
0.0

>  <ATG_M_61_TRANS_dn>  (2) 
0.0

>  <ATG_M_61_TRANS_up>  (2) 
0.0

>  <ATG_Myb_CIS_dn>  (2) 
0.0

>  <ATG_Myb_CIS_up>  (2) 
0.0

>  <ATG_Myc_CIS_dn>  (2) 
0.0

>  <ATG_Myc_CIS_up>  (2) 
0.0

>  <ATG_NFI_CIS_dn>  (2) 
0.0

>  <ATG_NFI_CIS_up>  (2) 
0.0

>  <ATG_NF_kB_CIS_dn>  (2) 
0.0

>  <ATG_NF_kB_CIS_up>  (2) 
0.0

>  <ATG_NRF1_CIS_dn>  (2) 
0.0

>  <ATG_NRF2_ARE_CIS_dn>  (2) 
0.0

>  <ATG_NRF2_ARE_CIS_up>  (2) 
1.0

>  <ATG_NURR1_TRANS_dn>  (2) 
0.0

>  <ATG_Oct_MLP_CIS_dn>  (2) 
0.0

>  <ATG_Oct_MLP_CIS_up>  (2) 
1.0

>  <ATG_PBREM_CIS_dn>  (2) 
0.0

>  <ATG_PBREM_CIS_up>  (2) 
0.0

>  <ATG_PPARa_TRANS_dn>  (2) 
0.0

>  <ATG_PPARa_TRANS_up>  (2) 
0.0

>  <ATG_PPARd_TRANS_dn>  (2) 
0.0

>  <ATG_PPARd_TRANS_up>  (2) 
0.0

>  <ATG_PPARg_TRANS_dn>  (2) 
0.0

>  <ATG_PPARg_TRANS_up>  (2) 
0.0

>  <ATG_PPRE_CIS_dn>  (2) 
0.0

>  <ATG_PPRE_CIS_up>  (2) 
0.0

>  <ATG_PXRE_CIS_dn>  (2) 
0.0

>  <ATG_PXRE_CIS_up>  (2) 
1.0

>  <ATG_PXR_TRANS_dn>  (2) 
0.0

>  <ATG_PXR_TRANS_up>  (2) 
1.0

>  <ATG_Pax6_CIS_dn>  (2) 
0.0

>  <ATG_Pax6_CIS_up>  (2) 
1.0

>  <ATG_RARa_TRANS_dn>  (2) 
0.0

>  <ATG_RARa_TRANS_up>  (2) 
0.0

>  <ATG_RARb_TRANS_dn>  (2) 
0.0

>  <ATG_RARb_TRANS_up>  (2) 
0.0

>  <ATG_RARg_TRANS_dn>  (2) 
0.0

>  <ATG_RARg_TRANS_up>  (2) 
0.0

>  <ATG_RORE_CIS_dn>  (2) 
0.0

>  <ATG_RORE_CIS_up>  (2) 
0.0

>  <ATG_RORb_TRANS_dn>  (2) 
0.0

>  <ATG_RORb_TRANS_up>  (2) 
0.0

>  <ATG_RORg_TRANS_dn>  (2) 
0.0

>  <ATG_RORg_TRANS_up>  (2) 
0.0

>  <ATG_RXRa_TRANS_dn>  (2) 
0.0

>  <ATG_RXRa_TRANS_up>  (2) 
0.0

>  <ATG_RXRb_TRANS_dn>  (2) 
0.0

>  <ATG_RXRb_TRANS_up>  (2) 
1.0

>  <ATG_SREBP_CIS_dn>  (2) 
0.0

>  <ATG_SREBP_CIS_up>  (2) 
0.0

>  <ATG_STAT3_CIS_dn>  (2) 
0.0

>  <ATG_STAT3_CIS_up>  (2) 
0.0

>  <ATG_Sp1_CIS_dn>  (2) 
0.0

>  <ATG_TAL_CIS_dn>  (2) 
0.0

>  <ATG_TAL_CIS_up>  (2) 
0.0

>  <ATG_TA_CIS_dn>  (2) 
0.0

>  <ATG_TA_CIS_up>  (2) 
0.0

>  <ATG_TCF_b_cat_CIS_dn>  (2) 
1.0

>  <ATG_TCF_b_cat_CIS_up>  (2) 
0.0

>  <ATG_TGFb_CIS_dn>  (2) 
0.0

>  <ATG_THRa1_TRANS_dn>  (2) 
0.0

>  <ATG_THRa1_TRANS_up>  (2) 
0.0

>  <ATG_VDRE_CIS_dn>  (2) 
0.0

>  <ATG_VDRE_CIS_up>  (2) 
1.0

>  <ATG_VDR_TRANS_dn>  (2) 
0.0

>  <ATG_VDR_TRANS_up>  (2) 
0.0

>  <ATG_XTT_Cytotoxicity_up>  (2) 
1.0

>  <ATG_Xbp1_CIS_dn>  (2) 
0.0

>  <ATG_Xbp1_CIS_up>  (2) 
1.0

>  <ATG_p53_CIS_dn>  (2) 
0.0

>  <ATG_p53_CIS_up>  (2) 
0.0

>  <BSK_3C_Eselectin_down>  (2) 
1.0

>  <BSK_3C_Eselectin_up>  (2) 
0.0

>  <BSK_3C_HLADR_up>  (2) 
0.0

>  <BSK_3C_ICAM1_down>  (2) 
1.0

>  <BSK_3C_ICAM1_up>  (2) 
0.0

>  <BSK_3C_IL8_down>  (2) 
1.0

>  <BSK_3C_IL8_up>  (2) 
0.0

>  <BSK_3C_MCP1_down>  (2) 
1.0

>  <BSK_3C_MCP1_up>  (2) 
0.0

>  <BSK_3C_MIG_down>  (2) 
1.0

>  <BSK_3C_MIG_up>  (2) 
0.0

>  <BSK_3C_Proliferation_down>  (2) 
1.0

>  <BSK_3C_Proliferation_up>  (2) 
0.0

>  <BSK_3C_SRB_down>  (2) 
1.0

>  <BSK_3C_SRB_up>  (2) 
0.0

>  <BSK_3C_Thrombomodulin_down>  (2) 
0.0

>  <BSK_3C_Thrombomodulin_up>  (2) 
0.0

>  <BSK_3C_TissueFactor_down>  (2) 
1.0

>  <BSK_3C_TissueFactor_up>  (2) 
0.0

>  <BSK_3C_VCAM1_down>  (2) 
1.0

>  <BSK_3C_VCAM1_up>  (2) 
0.0

>  <BSK_3C_Vis_up>  (2) 
0.0

>  <BSK_3C_uPAR_up>  (2) 
0.0

>  <BSK_4H_Eotaxin3_down>  (2) 
1.0

>  <BSK_4H_Eotaxin3_up>  (2) 
0.0

>  <BSK_4H_MCP1_down>  (2) 
1.0

>  <BSK_4H_MCP1_up>  (2) 
0.0

>  <BSK_4H_Pselectin_down>  (2) 
1.0

>  <BSK_4H_Pselectin_up>  (2) 
0.0

>  <BSK_4H_SRB_down>  (2) 
1.0

>  <BSK_4H_SRB_up>  (2) 
0.0

>  <BSK_4H_VCAM1_down>  (2) 
1.0

>  <BSK_4H_VCAM1_up>  (2) 
0.0

>  <BSK_4H_VEGFRII_down>  (2) 
0.0

>  <BSK_4H_VEGFRII_up>  (2) 
0.0

>  <BSK_4H_uPAR_down>  (2) 
1.0

>  <BSK_4H_uPAR_up>  (2) 
0.0

>  <BSK_BE3C_HLADR_down>  (2) 
1.0

>  <BSK_BE3C_HLADR_up>  (2) 
0.0

>  <BSK_BE3C_IL1a_down>  (2) 
1.0

>  <BSK_BE3C_IL1a_up>  (2) 
0.0

>  <BSK_BE3C_IP10_down>  (2) 
1.0

>  <BSK_BE3C_IP10_up>  (2) 
0.0

>  <BSK_BE3C_MIG_down>  (2) 
1.0

>  <BSK_BE3C_MIG_up>  (2) 
0.0

>  <BSK_BE3C_MMP1_down>  (2) 
1.0

>  <BSK_BE3C_MMP1_up>  (2) 
0.0

>  <BSK_BE3C_PAI1_down>  (2) 
1.0

>  <BSK_BE3C_PAI1_up>  (2) 
0.0

>  <BSK_BE3C_SRB_down>  (2) 
1.0

>  <BSK_BE3C_SRB_up>  (2) 
0.0

>  <BSK_BE3C_TGFb1_down>  (2) 
1.0

>  <BSK_BE3C_TGFb1_up>  (2) 
0.0

>  <BSK_BE3C_tPA_down>  (2) 
1.0

>  <BSK_BE3C_tPA_up>  (2) 
0.0

>  <BSK_BE3C_uPAR_down>  (2) 
1.0

>  <BSK_BE3C_uPAR_up>  (2) 
0.0

>  <BSK_BE3C_uPA_down>  (2) 
1.0

>  <BSK_BE3C_uPA_up>  (2) 
0.0

>  <BSK_CASM3C_HLADR_down>  (2) 
0.0

>  <BSK_CASM3C_HLADR_up>  (2) 
0.0

>  <BSK_CASM3C_IL6_down>  (2) 
0.0

>  <BSK_CASM3C_IL6_up>  (2) 
0.0

>  <BSK_CASM3C_IL8_down>  (2) 
1.0

>  <BSK_CASM3C_IL8_up>  (2) 
0.0

>  <BSK_CASM3C_LDLR_down>  (2) 
1.0

>  <BSK_CASM3C_LDLR_up>  (2) 
0.0

>  <BSK_CASM3C_MCP1_down>  (2) 
0.0

>  <BSK_CASM3C_MCP1_up>  (2) 
1.0

>  <BSK_CASM3C_MCSF_down>  (2) 
1.0

>  <BSK_CASM3C_MCSF_up>  (2) 
0.0

>  <BSK_CASM3C_MIG_down>  (2) 
0.0

>  <BSK_CASM3C_MIG_up>  (2) 
0.0

>  <BSK_CASM3C_Proliferation_down>  (2) 
1.0

>  <BSK_CASM3C_Proliferation_up>  (2) 
0.0

>  <BSK_CASM3C_SAA_down>  (2) 
1.0

>  <BSK_CASM3C_SAA_up>  (2) 
0.0

>  <BSK_CASM3C_SRB_down>  (2) 
1.0

>  <BSK_CASM3C_SRB_up>  (2) 
0.0

>  <BSK_CASM3C_Thrombomodulin_down>  (2) 
0.0

>  <BSK_CASM3C_Thrombomodulin_up>  (2) 
0.0

>  <BSK_CASM3C_TissueFactor_down>  (2) 
1.0

>  <BSK_CASM3C_TissueFactor_up>  (2) 
0.0

>  <BSK_CASM3C_VCAM1_down>  (2) 
1.0

>  <BSK_CASM3C_VCAM1_up>  (2) 
0.0

>  <BSK_CASM3C_uPAR_down>  (2) 
0.0

>  <BSK_CASM3C_uPAR_up>  (2) 
0.0

>  <BSK_KF3CT_ICAM1_down>  (2) 
1.0

>  <BSK_KF3CT_ICAM1_up>  (2) 
0.0

>  <BSK_KF3CT_IL1a_down>  (2) 
1.0

>  <BSK_KF3CT_IL1a_up>  (2) 
0.0

>  <BSK_KF3CT_IP10_down>  (2) 
1.0

>  <BSK_KF3CT_IP10_up>  (2) 
0.0

>  <BSK_KF3CT_MCP1_down>  (2) 
1.0

>  <BSK_KF3CT_MCP1_up>  (2) 
0.0

>  <BSK_KF3CT_MMP9_down>  (2) 
1.0

>  <BSK_KF3CT_MMP9_up>  (2) 
0.0

>  <BSK_KF3CT_SRB_down>  (2) 
1.0

>  <BSK_KF3CT_SRB_up>  (2) 
0.0

>  <BSK_KF3CT_TGFb1_down>  (2) 
1.0

>  <BSK_KF3CT_TGFb1_up>  (2) 
0.0

>  <BSK_KF3CT_TIMP2_down>  (2) 
1.0

>  <BSK_KF3CT_TIMP2_up>  (2) 
0.0

>  <BSK_KF3CT_uPA_down>  (2) 
1.0

>  <BSK_KF3CT_uPA_up>  (2) 
0.0

>  <BSK_LPS_CD40_down>  (2) 
1.0

>  <BSK_LPS_CD40_up>  (2) 
0.0

>  <BSK_LPS_Eselectin_down>  (2) 
1.0

>  <BSK_LPS_Eselectin_up>  (2) 
0.0

>  <BSK_LPS_IL1a_down>  (2) 
1.0

>  <BSK_LPS_IL1a_up>  (2) 
0.0

>  <BSK_LPS_IL8_down>  (2) 
1.0

>  <BSK_LPS_IL8_up>  (2) 
0.0

>  <BSK_LPS_MCP1_down>  (2) 
1.0

>  <BSK_LPS_MCP1_up>  (2) 
0.0

>  <BSK_LPS_MCSF_down>  (2) 
1.0

>  <BSK_LPS_MCSF_up>  (2) 
0.0

>  <BSK_LPS_PGE2_down>  (2) 
1.0

>  <BSK_LPS_PGE2_up>  (2) 
0.0

>  <BSK_LPS_SRB_down>  (2) 
1.0

>  <BSK_LPS_SRB_up>  (2) 
0.0

>  <BSK_LPS_TNFa_down>  (2) 
1.0

>  <BSK_LPS_TNFa_up>  (2) 
0.0

>  <BSK_LPS_TissueFactor_down>  (2) 
1.0

>  <BSK_LPS_TissueFactor_up>  (2) 
0.0

>  <BSK_LPS_VCAM1_down>  (2) 
1.0

>  <BSK_LPS_VCAM1_up>  (2) 
0.0

>  <BSK_SAg_CD38_down>  (2) 
1.0

>  <BSK_SAg_CD38_up>  (2) 
0.0

>  <BSK_SAg_CD40_down>  (2) 
1.0

>  <BSK_SAg_CD40_up>  (2) 
0.0

>  <BSK_SAg_CD69_down>  (2) 
1.0

>  <BSK_SAg_CD69_up>  (2) 
0.0

>  <BSK_SAg_Eselectin_down>  (2) 
1.0

>  <BSK_SAg_Eselectin_up>  (2) 
0.0

>  <BSK_SAg_IL8_down>  (2) 
1.0

>  <BSK_SAg_IL8_up>  (2) 
0.0

>  <BSK_SAg_MCP1_down>  (2) 
1.0

>  <BSK_SAg_MCP1_up>  (2) 
0.0

>  <BSK_SAg_MIG_down>  (2) 
1.0

>  <BSK_SAg_MIG_up>  (2) 
0.0

>  <BSK_SAg_PBMCCytotoxicity_down>  (2) 
1.0

>  <BSK_SAg_PBMCCytotoxicity_up>  (2) 
0.0

>  <BSK_SAg_Proliferation_down>  (2) 
1.0

>  <BSK_SAg_Proliferation_up>  (2) 
0.0

>  <BSK_SAg_SRB_down>  (2) 
1.0

>  <BSK_SAg_SRB_up>  (2) 
0.0

>  <BSK_hDFCGF_CollagenIII_down>  (2) 
1.0

>  <BSK_hDFCGF_CollagenIII_up>  (2) 
0.0

>  <BSK_hDFCGF_EGFR_down>  (2) 
0.0

>  <BSK_hDFCGF_EGFR_up>  (2) 
0.0

>  <BSK_hDFCGF_IL8_down>  (2) 
0.0

>  <BSK_hDFCGF_IL8_up>  (2) 
0.0

>  <BSK_hDFCGF_IP10_down>  (2) 
1.0

>  <BSK_hDFCGF_IP10_up>  (2) 
0.0

>  <BSK_hDFCGF_MCSF_down>  (2) 
1.0

>  <BSK_hDFCGF_MCSF_up>  (2) 
0.0

>  <BSK_hDFCGF_MIG_down>  (2) 
1.0

>  <BSK_hDFCGF_MIG_up>  (2) 
0.0

>  <BSK_hDFCGF_MMP1_down>  (2) 
1.0

>  <BSK_hDFCGF_MMP1_up>  (2) 
0.0

>  <BSK_hDFCGF_PAI1_down>  (2) 
1.0

>  <BSK_hDFCGF_PAI1_up>  (2) 
0.0

>  <BSK_hDFCGF_Proliferation_down>  (2) 
1.0

>  <BSK_hDFCGF_Proliferation_up>  (2) 
0.0

>  <BSK_hDFCGF_SRB_down>  (2) 
1.0

>  <BSK_hDFCGF_SRB_up>  (2) 
0.0

>  <BSK_hDFCGF_TIMP1_down>  (2) 
1.0

>  <BSK_hDFCGF_TIMP1_up>  (2) 
0.0

>  <BSK_hDFCGF_VCAM1_down>  (2) 
1.0

>  <BSK_hDFCGF_VCAM1_up>  (2) 
0.0

>  <CEETOX_H295R_11DCORT_noMTC_dn>  (2) 
1.0

>  <CEETOX_H295R_11DCORT_noMTC_up>  (2) 
0.0

>  <CEETOX_H295R_ANDR_noMTC_dn>  (2) 
1.0

>  <CEETOX_H295R_ANDR_noMTC_up>  (2) 
0.0

>  <CEETOX_H295R_CORTIC_noMTC_dn>  (2) 
1.0

>  <CEETOX_H295R_CORTIC_noMTC_up>  (2) 
0.0

>  <CEETOX_H295R_CORTISOL_noMTC_dn>  (2) 
1.0

>  <CEETOX_H295R_CORTISOL_noMTC_up>  (2) 
0.0

>  <CEETOX_H295R_DOC_noMTC_dn>  (2) 
1.0

>  <CEETOX_H295R_DOC_noMTC_up>  (2) 
0.0

>  <CEETOX_H295R_ESTRADIOL_noMTC_dn>  (2) 
0.0

>  <CEETOX_H295R_ESTRADIOL_noMTC_up>  (2) 
1.0

>  <CEETOX_H295R_ESTRONE_noMTC_dn>  (2) 
1.0

>  <CEETOX_H295R_ESTRONE_noMTC_up>  (2) 
0.0

>  <CEETOX_H295R_MTT_cell_viability_dn>  (2) 
1.0

>  <CEETOX_H295R_MTT_cell_viability_up>  (2) 
0.0

>  <CEETOX_H295R_OHPREG_noMTC_dn>  (2) 
0.0

>  <CEETOX_H295R_OHPREG_noMTC_up>  (2) 
0.0

>  <CEETOX_H295R_OHPROG_noMTC_dn>  (2) 
1.0

>  <CEETOX_H295R_OHPROG_noMTC_up>  (2) 
0.0

>  <CEETOX_H295R_PROG_noMTC_dn>  (2) 
0.0

>  <CEETOX_H295R_PROG_noMTC_up>  (2) 
0.0

>  <CEETOX_H295R_TESTO_noMTC_dn>  (2) 
1.0

>  <CEETOX_H295R_TESTO_noMTC_up>  (2) 
0.0

>  <NCCT_HEK293T_CellTiterGLO>  (2) 
1.0

>  <NCCT_QuantiLum_inhib_2_dn>  (2) 
0.0

>  <NCCT_QuantiLum_inhib_dn>  (2) 
1.0

>  <NCCT_TPO_AUR_dn>  (2) 
1.0

>  <NHEERL_ZF_144hpf_TERATOSCORE_up>  (2) 
1.0

>  <NIS_HEK293T_CTG_Cytotoxicity>  (2) 
1.0

>  <NIS_RAIU_inhibition>  (2) 
1.0

>  <NVS_ADME_hCYP19A1>  (2) 
1.0

>  <NVS_ADME_hCYP19A1_Activator>  (2) 
0.0

>  <NVS_ADME_hCYP3A4>  (2) 
1.0

>  <NVS_ADME_hCYP3A4_Activator>  (2) 
0.0

>  <NVS_ADME_rCYP2A1>  (2) 
1.0

>  <NVS_ADME_rCYP2A1_Activator>  (2) 
0.0

>  <NVS_ADME_rCYP2A2>  (2) 
1.0

>  <NVS_ADME_rCYP2A2_Activator>  (2) 
0.0

>  <NVS_ADME_rCYP2C11>  (2) 
1.0

>  <NVS_ADME_rCYP2C11_Activator>  (2) 
0.0

>  <NVS_ADME_rCYP2C13>  (2) 
1.0

>  <NVS_ADME_rCYP2C13_Activator>  (2) 
0.0

>  <NVS_ENZ_hACP1>  (2) 
0.0

>  <NVS_ENZ_hACP1_Activator>  (2) 
0.0

>  <NVS_ENZ_hAKT1>  (2) 
0.0

>  <NVS_ENZ_hAKT1_Activator>  (2) 
0.0

>  <NVS_ENZ_hAurA>  (2) 
0.0

>  <NVS_ENZ_hAurA_Activator>  (2) 
0.0

>  <NVS_ENZ_hCASP8>  (2) 
0.0

>  <NVS_ENZ_hCASP8_Activator>  (2) 
0.0

>  <NVS_ENZ_hCK1D>  (2) 
0.0

>  <NVS_ENZ_hCK1D_Activator>  (2) 
0.0

>  <NVS_ENZ_hCSF1R>  (2) 
0.0

>  <NVS_ENZ_hCSF1R_Activator>  (2) 
0.0

>  <NVS_ENZ_hEGFR>  (2) 
0.0

>  <NVS_ENZ_hEGFR_Activator>  (2) 
0.0

>  <NVS_ENZ_hES>  (2) 
0.0

>  <NVS_ENZ_hES_Activator>  (2) 
0.0

>  <NVS_ENZ_hElastase>  (2) 
0.0

>  <NVS_ENZ_hElastase_Activator>  (2) 
0.0

>  <NVS_ENZ_hEphA1>  (2) 
0.0

>  <NVS_ENZ_hEphA1_Activator>  (2) 
0.0

>  <NVS_ENZ_hEphA2>  (2) 
0.0

>  <NVS_ENZ_hEphA2_Activator>  (2) 
0.0

>  <NVS_ENZ_hFGFR1>  (2) 
1.0

>  <NVS_ENZ_hFGFR1_Activator>  (2) 
0.0

>  <NVS_ENZ_hJNK2>  (2) 
0.0

>  <NVS_ENZ_hJNK2_Activator>  (2) 
0.0

>  <NVS_ENZ_hMAPK1>  (2) 
0.0

>  <NVS_ENZ_hMAPK1_Activator>  (2) 
0.0

>  <NVS_ENZ_hMAPK3>  (2) 
0.0

>  <NVS_ENZ_hMAPK3_Activator>  (2) 
0.0

>  <NVS_ENZ_hMMP2>  (2) 
0.0

>  <NVS_ENZ_hMMP2_Activator>  (2) 
0.0

>  <NVS_ENZ_hNEK2>  (2) 
0.0

>  <NVS_ENZ_hNEK2_Activator>  (2) 
0.0

>  <NVS_ENZ_hPAK4>  (2) 
0.0

>  <NVS_ENZ_hPAK4_Activator>  (2) 
0.0

>  <NVS_ENZ_hPDE10>  (2) 
0.0

>  <NVS_ENZ_hPDE10_Activator>  (2) 
0.0

>  <NVS_ENZ_hPDE4A1>  (2) 
0.0

>  <NVS_ENZ_hPDE4A1_Activator>  (2) 
0.0

>  <NVS_ENZ_hPDE5>  (2) 
0.0

>  <NVS_ENZ_hPDE5_Activator>  (2) 
0.0

>  <NVS_ENZ_hPI3Ka>  (2) 
1.0

>  <NVS_ENZ_hPI3Ka_Activator>  (2) 
0.0

>  <NVS_ENZ_hPKA>  (2) 
0.0

>  <NVS_ENZ_hPKA_Activator>  (2) 
0.0

>  <NVS_ENZ_hPPP1CA>  (2) 
0.0

>  <NVS_ENZ_hPPP1CA_Activator>  (2) 
0.0

>  <NVS_ENZ_hPPP2CA>  (2) 
0.0

>  <NVS_ENZ_hPPP2CA_Activator>  (2) 
0.0

>  <NVS_ENZ_hPTEN>  (2) 
1.0

>  <NVS_ENZ_hPTEN_Activator>  (2) 
0.0

>  <NVS_ENZ_hPTPN11>  (2) 
0.0

>  <NVS_ENZ_hPTPN11_Activator>  (2) 
0.0

>  <NVS_ENZ_hPTPN12>  (2) 
0.0

>  <NVS_ENZ_hPTPN12_Activator>  (2) 
0.0

>  <NVS_ENZ_hPTPN14>  (2) 
0.0

>  <NVS_ENZ_hPTPN14_Activator>  (2) 
0.0

>  <NVS_ENZ_hPTPN2>  (2) 
0.0

>  <NVS_ENZ_hPTPN2_Activator>  (2) 
0.0

>  <NVS_ENZ_hPTPRB>  (2) 
0.0

>  <NVS_ENZ_hPTPRB_Activator>  (2) 
0.0

>  <NVS_ENZ_hRAF1>  (2) 
0.0

>  <NVS_ENZ_hRAF1_Activator>  (2) 
0.0

>  <NVS_ENZ_hSRC>  (2) 
0.0

>  <NVS_ENZ_hSRC_Activator>  (2) 
0.0

>  <NVS_ENZ_hTie2>  (2) 
0.0

>  <NVS_ENZ_hTie2_Activator>  (2) 
0.0

>  <NVS_ENZ_hVEGFR2>  (2) 
0.0

>  <NVS_ENZ_hVEGFR2_Activator>  (2) 
0.0

>  <NVS_ENZ_oCOX1>  (2) 
0.0

>  <NVS_ENZ_oCOX1_Activator>  (2) 
0.0

>  <NVS_GPCR_g5HT4>  (2) 
1.0

>  <NVS_GPCR_gLTD4>  (2) 
1.0

>  <NVS_GPCR_gOpiateK>  (2) 
1.0

>  <NVS_GPCR_h5HT5A>  (2) 
0.0

>  <NVS_GPCR_h5HT6>  (2) 
1.0

>  <NVS_GPCR_h5HT7>  (2) 
0.0

>  <NVS_GPCR_hAdoRA1>  (2) 
1.0

>  <NVS_GPCR_hAdra2C>  (2) 
1.0

>  <NVS_GPCR_hAdrb1>  (2) 
1.0

>  <NVS_GPCR_hAdrb2>  (2) 
1.0

>  <NVS_GPCR_hAdrb3>  (2) 
1.0

>  <NVS_GPCR_hDRD1>  (2) 
1.0

>  <NVS_GPCR_hDRD2s>  (2) 
1.0

>  <NVS_GPCR_hDRD4.4>  (2) 
0.0

>  <NVS_GPCR_hH1>  (2) 
0.0

>  <NVS_GPCR_hNK2>  (2) 
0.0

>  <NVS_GPCR_hORL1>  (2) 
1.0

>  <NVS_GPCR_hOpiate_D1>  (2) 
0.0

>  <NVS_GPCR_hOpiate_mu>  (2) 
1.0

>  <NVS_GPCR_hTXA2>  (2) 
1.0

>  <NVS_GPCR_mCCKAPeripheral>  (2) 
1.0

>  <NVS_GPCR_mCKKBCentral>  (2) 
1.0

>  <NVS_GPCR_p5HT2C>  (2) 
1.0

>  <NVS_GPCR_rAdra1_NonSelective>  (2) 
0.0

>  <NVS_GPCR_rAdra2_NonSelective>  (2) 
1.0

>  <NVS_GPCR_rGABBR>  (2) 
0.0

>  <NVS_GPCR_rOpiate_NonSelective>  (2) 
1.0

>  <NVS_GPCR_rSST>  (2) 
1.0

>  <NVS_IC_rCaBTZCHL>  (2) 
1.0

>  <NVS_LGIC_rAMPA>  (2) 
1.0

>  <NVS_MP_hPBR>  (2) 
1.0

>  <NVS_MP_rPBR>  (2) 
1.0

>  <NVS_NR_bPR>  (2) 
1.0

>  <NVS_NR_hFXR_Agonist>  (2) 
0.0

>  <NVS_NR_hPPARa>  (2) 
0.0

>  <NVS_NR_hPPARg>  (2) 
0.0

>  <NVS_NR_hPXR>  (2) 
0.0

>  <NVS_NR_hRARa_Agonist>  (2) 
0.0

>  <NVS_NR_hTRa_Antagonist>  (2) 
0.0

>  <NVS_TR_hAdoT>  (2) 
1.0

>  <NVS_TR_hDAT>  (2) 
1.0

>  <NVS_TR_hNET>  (2) 
0.0

>  <NVS_TR_rVMAT2>  (2) 
1.0

>  <OT_AR_ARSRC1_0480>  (2) 
1.0

>  <OT_AR_ARSRC1_0960>  (2) 
1.0

>  <OT_ER_ERaERa_0480>  (2) 
1.0

>  <OT_ER_ERaERa_1440>  (2) 
1.0

>  <OT_ER_ERaERb_0480>  (2) 
1.0

>  <OT_ER_ERbERb_0480>  (2) 
1.0

>  <OT_ER_ERbERb_1440>  (2) 
1.0

>  <OT_ERa_EREGFP_0480>  (2) 
1.0

>  <TOX21_AP1_BLA_Agonist_ch1>  (2) 
1.0

>  <TOX21_AP1_BLA_Agonist_ch2>  (2) 
0.0

>  <TOX21_AP1_BLA_Agonist_ratio>  (2) 
0.0

>  <TOX21_AP1_BLA_Agonist_viability>  (2) 
1.0

>  <TOX21_ARE_BLA_Agonist_ch1>  (2) 
0.0

>  <TOX21_ARE_BLA_Agonist_ch2>  (2) 
1.0

>  <TOX21_ARE_BLA_agonist_viability>  (2) 
1.0

>  <TOX21_AR_BLA_Agonist_ch1>  (2) 
0.0

>  <TOX21_AR_BLA_Agonist_ch2>  (2) 
0.0

>  <TOX21_AR_BLA_Agonist_ratio>  (2) 
0.0

>  <TOX21_AR_BLA_Antagonist_ch1>  (2) 
0.0

>  <TOX21_AR_BLA_Antagonist_ch2>  (2) 
1.0

>  <TOX21_AR_BLA_Antagonist_ratio>  (2) 
1.0

>  <TOX21_AR_BLA_Antagonist_viability>  (2) 
1.0

>  <TOX21_AR_LUC_MDAKB2_Agonist>  (2) 
0.0

>  <TOX21_AR_LUC_MDAKB2_Agonist_3uM_Nilutamide>  (2) 
0.0

>  <TOX21_AR_LUC_MDAKB2_Agonist_3uM_Nilutamide_viability>  (2) 
1.0

>  <TOX21_AR_LUC_MDAKB2_Antagonist_0.5nM_R1881>  (2) 
1.0

>  <TOX21_AR_LUC_MDAKB2_Antagonist_0.5nM_R1881_viability>  (2) 
0.0

>  <TOX21_AR_LUC_MDAKB2_Antagonist_10nM_R1881>  (2) 
1.0

>  <TOX21_AR_LUC_MDAKB2_Antagonist_10nM_R1881_viability>  (2) 
0.0

>  <TOX21_AhR_LUC_Agonist>  (2) 
0.0

>  <TOX21_Aromatase_Inhibition>  (2) 
1.0

>  <TOX21_Aromatase_Inhibition_viability>  (2) 
1.0

>  <TOX21_AutoFluor_HEK293_Cell_blue>  (2) 
0.0

>  <TOX21_AutoFluor_HEK293_Cell_green>  (2) 
0.0

>  <TOX21_AutoFluor_HEK293_Cell_red>  (2) 
0.0

>  <TOX21_AutoFluor_HEK293_Media_blue>  (2) 
0.0

>  <TOX21_AutoFluor_HEK293_Media_green>  (2) 
0.0

>  <TOX21_AutoFluor_HEK293_Media_red>  (2) 
0.0

>  <TOX21_AutoFluor_HEPG2_Cell_blue>  (2) 
0.0

>  <TOX21_AutoFluor_HEPG2_Cell_green>  (2) 
0.0

>  <TOX21_AutoFluor_HEPG2_Cell_red>  (2) 
0.0

>  <TOX21_AutoFluor_HEPG2_Media_blue>  (2) 
0.0

>  <TOX21_AutoFluor_HEPG2_Media_green>  (2) 
0.0

>  <TOX21_AutoFluor_HEPG2_Media_red>  (2) 
0.0

>  <TOX21_CAR_Agonist>  (2) 
0.0

>  <TOX21_CAR_Antagonist>  (2) 
1.0

>  <TOX21_CAR_Antagonist_viability>  (2) 
1.0

>  <TOX21_CASP3_CHO>  (2) 
0.0

>  <TOX21_CASP3_CHO_viability>  (2) 
1.0

>  <TOX21_CASP3_HEPG2>  (2) 
0.0

>  <TOX21_CASP3_HEPG2_viability>  (2) 
1.0

>  <TOX21_DT40>  (2) 
1.0

>  <TOX21_DT40_100>  (2) 
1.0

>  <TOX21_DT40_657>  (2) 
1.0

>  <TOX21_ELG1_LUC_Agonist>  (2) 
0.0

>  <TOX21_ELG1_LUC_Agonist_viability>  (2) 
0.0

>  <TOX21_ERR_Agonist>  (2) 
0.0

>  <TOX21_ERR_Antagonist>  (2) 
1.0

>  <TOX21_ERa_BLA_Agonist_ch1>  (2) 
1.0

>  <TOX21_ERa_BLA_Agonist_ch2>  (2) 
1.0

>  <TOX21_ERa_BLA_Agonist_ratio>  (2) 
1.0

>  <TOX21_ERa_BLA_Antagonist_ch1>  (2) 
0.0

>  <TOX21_ERa_BLA_Antagonist_ch2>  (2) 
0.0

>  <TOX21_ERa_BLA_Antagonist_ratio>  (2) 
1.0

>  <TOX21_ERa_BLA_Antagonist_viability>  (2) 
0.0

>  <TOX21_ERa_LUC_VM7_Agonist>  (2) 
1.0

>  <TOX21_ERa_LUC_VM7_Agonist_10nM_ICI182780>  (2) 
1.0

>  <TOX21_ERa_LUC_VM7_Agonist_10nM_ICI182780_viability>  (2) 
0.0

>  <TOX21_ERa_LUC_VM7_Antagonist_0.1nM_E2>  (2) 
1.0

>  <TOX21_ERa_LUC_VM7_Antagonist_0.1nM_E2_viability>  (2) 
0.0

>  <TOX21_ERa_LUC_VM7_Antagonist_0.5nM_E2>  (2) 
1.0

>  <TOX21_ERa_LUC_VM7_Antagonist_0.5nM_E2_viability>  (2) 
0.0

>  <TOX21_ERb_BLA_Agonist_ch1>  (2) 
0.0

>  <TOX21_ERb_BLA_Agonist_ch2>  (2) 
1.0

>  <TOX21_ERb_BLA_Agonist_ratio>  (2) 
1.0

>  <TOX21_ERb_BLA_Agonist_viability>  (2) 
1.0

>  <TOX21_ERb_BLA_Antagonist_ch1>  (2) 
0.0

>  <TOX21_ERb_BLA_Antagonist_ch2>  (2) 
1.0

>  <TOX21_ERb_BLA_Antagonist_ratio>  (2) 
1.0

>  <TOX21_ERb_BLA_Antagonist_viability>  (2) 
1.0

>  <TOX21_ESRE_BLA_ch1>  (2) 
0.0

>  <TOX21_ESRE_BLA_ch2>  (2) 
0.0

>  <TOX21_ESRE_BLA_ratio>  (2) 
0.0

>  <TOX21_ESRE_BLA_viability>  (2) 
1.0

>  <TOX21_FXR_BLA_Antagonist_ch1>  (2) 
1.0

>  <TOX21_FXR_BLA_Antagonist_ch2>  (2) 
1.0

>  <TOX21_FXR_BLA_agonist_ch1>  (2) 
0.0

>  <TOX21_FXR_BLA_agonist_ch2>  (2) 
0.0

>  <TOX21_FXR_BLA_agonist_ratio>  (2) 
0.0

>  <TOX21_FXR_BLA_agonist_viability>  (2) 
0.0

>  <TOX21_FXR_BLA_antagonist_ratio>  (2) 
1.0

>  <TOX21_FXR_BLA_antagonist_viability>  (2) 
1.0

>  <TOX21_GR_BLA_Agonist_ch1>  (2) 
1.0

>  <TOX21_GR_BLA_Agonist_ch2>  (2) 
0.0

>  <TOX21_GR_BLA_Agonist_ratio>  (2) 
0.0

>  <TOX21_GR_BLA_Antagonist_ch1>  (2) 
0.0

>  <TOX21_GR_BLA_Antagonist_ch2>  (2) 
1.0

>  <TOX21_GR_BLA_Antagonist_ratio>  (2) 
1.0

>  <TOX21_GR_BLA_Antagonist_viability>  (2) 
1.0

>  <TOX21_H2AX_HTRF_CHO_Agonist_ch1>  (2) 
0.0

>  <TOX21_H2AX_HTRF_CHO_Agonist_ch2>  (2) 
0.0

>  <TOX21_H2AX_HTRF_CHO_Agonist_ratio>  (2) 
0.0

>  <TOX21_H2AX_HTRF_CHO_viability>  (2) 
1.0

>  <TOX21_HDAC_Inhibition>  (2) 
0.0

>  <TOX21_HDAC_Inhibition_viability>  (2) 
0.0

>  <TOX21_HRE_BLA_Agonist_ch1>  (2) 
1.0

>  <TOX21_HRE_BLA_Agonist_ch2>  (2) 
0.0

>  <TOX21_HRE_BLA_Agonist_ratio>  (2) 
1.0

>  <TOX21_HRE_BLA_Agonist_viability>  (2) 
1.0

>  <TOX21_HSE_BLA_agonist_ch1>  (2) 
0.0

>  <TOX21_HSE_BLA_agonist_ch2>  (2) 
0.0

>  <TOX21_HSE_BLA_agonist_ratio>  (2) 
1.0

>  <TOX21_HSE_BLA_agonist_viability>  (2) 
0.0

>  <TOX21_LUC_Biochem>  (2) 
0.0

>  <TOX21_MMP_fitc>  (2) 
1.0

>  <TOX21_MMP_ratio_down>  (2) 
1.0

>  <TOX21_MMP_ratio_up>  (2) 
0.0

>  <TOX21_MMP_rhodamine>  (2) 
1.0

>  <TOX21_MMP_viability>  (2) 
1.0

>  <TOX21_NFkB_BLA_agonist_ch1>  (2) 
1.0

>  <TOX21_NFkB_BLA_agonist_ch2>  (2) 
0.0

>  <TOX21_NFkB_BLA_agonist_ratio>  (2) 
0.0

>  <TOX21_NFkB_BLA_agonist_viability>  (2) 
1.0

>  <TOX21_PGC_ERR_Agonist>  (2) 
0.0

>  <TOX21_PGC_ERR_Antagonist>  (2) 
1.0

>  <TOX21_PGC_ERR_viability>  (2) 
1.0

>  <TOX21_PPARd_BLA_Agonist_viability>  (2) 
1.0

>  <TOX21_PPARd_BLA_Antagonist_ch1>  (2) 
0.0

>  <TOX21_PPARd_BLA_Antagonist_ch2>  (2) 
0.0

>  <TOX21_PPARd_BLA_agonist_ch1>  (2) 
0.0

>  <TOX21_PPARd_BLA_agonist_ch2>  (2) 
0.0

>  <TOX21_PPARd_BLA_agonist_ratio>  (2) 
0.0

>  <TOX21_PPARd_BLA_antagonist_ratio>  (2) 
0.0

>  <TOX21_PPARd_BLA_antagonist_viability>  (2) 
0.0

>  <TOX21_PPARg_BLA_Agonist_ch1>  (2) 
0.0

>  <TOX21_PPARg_BLA_Agonist_ch2>  (2) 
0.0

>  <TOX21_PPARg_BLA_Agonist_ratio>  (2) 
0.0

>  <TOX21_PPARg_BLA_Antagonist_ch1>  (2) 
1.0

>  <TOX21_PPARg_BLA_Antagonist_ch2>  (2) 
1.0

>  <TOX21_PPARg_BLA_antagonist_ratio>  (2) 
1.0

>  <TOX21_PPARg_BLA_antagonist_viability>  (2) 
1.0

>  <TOX21_PR_BLA_Agonist_ch1>  (2) 
0.0

>  <TOX21_PR_BLA_Agonist_ch2>  (2) 
0.0

>  <TOX21_PR_BLA_Agonist_ratio>  (2) 
0.0

>  <TOX21_PR_BLA_Antagonist_ch1>  (2) 
0.0

>  <TOX21_PR_BLA_Antagonist_ch2>  (2) 
1.0

>  <TOX21_PR_BLA_Antagonist_ratio>  (2) 
1.0

>  <TOX21_PR_BLA_Antagonist_viability>  (2) 
1.0

>  <TOX21_PXR_Agonist>  (2) 
0.0

>  <TOX21_PXR_viability>  (2) 
1.0

>  <TOX21_RAR_LUC_Agonist>  (2) 
0.0

>  <TOX21_RAR_LUC_Agonist_viability>  (2) 
0.0

>  <TOX21_RAR_LUC_Antagonist_viability>  (2) 
0.0

>  <TOX21_RORg_LUC_CHO_Antagonist>  (2) 
1.0

>  <TOX21_RORg_LUC_CHO_Antagonist_viability>  (2) 
1.0

>  <TOX21_RT_HEK293_FLO_00hr_viability>  (2) 
0.0

>  <TOX21_RT_HEK293_FLO_08hr_viability>  (2) 
0.0

>  <TOX21_RT_HEK293_FLO_16hr_viability>  (2) 
0.0

>  <TOX21_RT_HEK293_FLO_24hr_viability>  (2) 
0.0

>  <TOX21_RT_HEK293_FLO_32hr_viability>  (2) 
0.0

>  <TOX21_RT_HEK293_FLO_40hr_viability>  (2) 
0.0

>  <TOX21_RT_HEK293_GLO_00hr_viability>  (2) 
0.0

>  <TOX21_RT_HEK293_GLO_08hr_viability>  (2) 
1.0

>  <TOX21_RT_HEK293_GLO_16hr_viability>  (2) 
1.0

>  <TOX21_RT_HEK293_GLO_24hr_viability>  (2) 
1.0

>  <TOX21_RT_HEK293_GLO_32hr_viability>  (2) 
1.0

>  <TOX21_RT_HEK293_GLO_40hr_viability>  (2) 
1.0

>  <TOX21_RT_HEPG2_FLO_00hr_ctrl_viability>  (2) 
0.0

>  <TOX21_RT_HEPG2_FLO_08hr_viability>  (2) 
0.0

>  <TOX21_RT_HEPG2_FLO_16hr_ctrl_viability>  (2) 
0.0

>  <TOX21_RT_HEPG2_FLO_24hr_viability>  (2) 
0.0

>  <TOX21_RT_HEPG2_FLO_32hr_ctrl_viability>  (2) 
0.0

>  <TOX21_RT_HEPG2_GLO_00hr_ctrl_viability>  (2) 
0.0

>  <TOX21_RT_HEPG2_GLO_08hr_ctrl_viability>  (2) 
0.0

>  <TOX21_RT_HEPG2_GLO_16hr_ctrl_viability>  (2) 
0.0

>  <TOX21_RT_HEPG2_GLO_24hr_ctrl_viability>  (2) 
0.0

>  <TOX21_RT_HEPG2_GLO_32hr_ctrl_viability>  (2) 
0.0

>  <TOX21_RT_HEPG2_GLO_40hr_viability>  (2) 
0.0

>  <TOX21_RXR_BLA_Agonist_ch1>  (2) 
0.0

>  <TOX21_RXR_BLA_Agonist_ch2>  (2) 
0.0

>  <TOX21_RXR_BLA_Agonist_ratio>  (2) 
0.0

>  <TOX21_RXR_BLA_Agonist_viability>  (2) 
1.0

>  <TOX21_SBE_BLA_Agonist_ch1>  (2) 
0.0

>  <TOX21_SBE_BLA_Agonist_ch2>  (2) 
0.0

>  <TOX21_SBE_BLA_Agonist_ratio>  (2) 
0.0

>  <TOX21_SBE_BLA_Agonist_viability>  (2) 
0.0

>  <TOX21_SBE_BLA_Antagonist_ch1>  (2) 
0.0

>  <TOX21_SBE_BLA_Antagonist_ch2>  (2) 
1.0

>  <TOX21_SBE_BLA_Antagonist_ratio>  (2) 
1.0

>  <TOX21_SBE_BLA_Antagonist_viability>  (2) 
0.0

>  <TOX21_SSH_3T3_GLI3_Agonist>  (2) 
0.0

>  <TOX21_SSH_3T3_GLI3_Agonist_viability>  (2) 
1.0

>  <TOX21_SSH_3T3_GLI3_Antagonist>  (2) 
1.0

>  <TOX21_SSH_3T3_GLI3_Antagonist_viability>  (2) 
1.0

>  <TOX21_TRHR_HEK293_Agonist>  (2) 
0.0

>  <TOX21_TRHR_HEK293_Antagonist>  (2) 
0.0

>  <TOX21_TR_LUC_GH3_Agonist>  (2) 
0.0

>  <TOX21_TR_LUC_GH3_Antagonist>  (2) 
1.0

>  <TOX21_TR_LUC_GH3_Antagonist_viability>  (2) 
1.0

>  <TOX21_TSHR_Agonist_ch2>  (2) 
0.0

>  <TOX21_TSHR_Antagonist_ch2>  (2) 
0.0

>  <TOX21_TSHR_Antagonist_ratio>  (2) 
0.0

>  <TOX21_TSHR_HTRF_Agonist_ch1>  (2) 
1.0

>  <TOX21_TSHR_HTRF_Antagonist_ch1>  (2) 
0.0

>  <TOX21_TSHR_wt_HTRF_ch1>  (2) 
0.0

>  <TOX21_TSHR_wt_ch2>  (2) 
0.0

>  <TOX21_TSHR_wt_ratio>  (2) 
0.0

>  <TOX21_VDR_BLA_Agonist_viability>  (2) 
1.0

>  <TOX21_VDR_BLA_Antagonist_ch1>  (2) 
0.0

>  <TOX21_VDR_BLA_Antagonist_ch2>  (2) 
0.0

>  <TOX21_VDR_BLA_agonist_ch1>  (2) 
0.0

>  <TOX21_VDR_BLA_agonist_ch2>  (2) 
0.0

>  <TOX21_VDR_BLA_agonist_ratio>  (2) 
0.0

>  <TOX21_VDR_BLA_antagonist_ratio>  (2) 
1.0

>  <TOX21_VDR_BLA_antagonist_viability>  (2) 
0.0

>  <TOX21_p53_BLA_p1_ch1>  (2) 
1.0

>  <TOX21_p53_BLA_p1_ch2>  (2) 
1.0

>  <TOX21_p53_BLA_p1_ratio>  (2) 
1.0

>  <TOX21_p53_BLA_p1_viability>  (2) 
0.0

>  <TOX21_p53_BLA_p2_ch1>  (2) 
1.0

>  <TOX21_p53_BLA_p2_ch2>  (2) 
1.0

>  <TOX21_p53_BLA_p2_ratio>  (2) 
1.0

>  <TOX21_p53_BLA_p2_viability>  (2) 
1.0

>  <TOX21_p53_BLA_p3_ch1>  (2) 
1.0

>  <TOX21_p53_BLA_p3_ch2>  (2) 
1.0

>  <TOX21_p53_BLA_p3_ratio>  (2) 
1.0

>  <TOX21_p53_BLA_p4_ch1>  (2) 
1.0

>  <TOX21_p53_BLA_p4_ch2>  (2) 
1.0

>  <TOX21_p53_BLA_p4_ratio>  (2) 
1.0

>  <TOX21_p53_BLA_p4_viability>  (2) 
1.0

>  <TOX21_p53_BLA_p5_ch1>  (2) 
1.0

>  <TOX21_p53_BLA_p5_ch2>  (2) 
1.0

>  <TOX21_p53_BLA_p5_ratio>  (2) 
1.0

>  <TOX21_p53_BLA_p5_viability>  (2) 
1.0

>  <Tanguay_ZF_120hpf_AXIS_up>  (2) 
0.0

>  <Tanguay_ZF_120hpf_ActivityScore>  (2) 
1.0

>  <Tanguay_ZF_120hpf_BRAI_up>  (2) 
0.0

>  <Tanguay_ZF_120hpf_CFIN_up>  (2) 
0.0

>  <Tanguay_ZF_120hpf_CIRC_up>  (2) 
0.0

>  <Tanguay_ZF_120hpf_EYE_up>  (2) 
0.0

>  <Tanguay_ZF_120hpf_JAW_up>  (2) 
0.0

>  <Tanguay_ZF_120hpf_MORT_up>  (2) 
1.0

>  <Tanguay_ZF_120hpf_NC_up>  (2) 
0.0

>  <Tanguay_ZF_120hpf_OTIC_up>  (2) 
0.0

>  <Tanguay_ZF_120hpf_PE_up>  (2) 
0.0

>  <Tanguay_ZF_120hpf_PFIN_up>  (2) 
0.0

>  <Tanguay_ZF_120hpf_PIG_up>  (2) 
0.0

>  <Tanguay_ZF_120hpf_SNOU_up>  (2) 
0.0

>  <Tanguay_ZF_120hpf_SOMI_up>  (2) 
0.0

>  <Tanguay_ZF_120hpf_SWIM_up>  (2) 
0.0

>  <Tanguay_ZF_120hpf_TRUN_up>  (2) 
0.0

>  <Tanguay_ZF_120hpf_TR_up>  (2) 
0.0

>  <Tanguay_ZF_120hpf_YSE_up>  (2) 
0.0

>  <UPITT_HCI_U2OS_AR_TIF2_Nucleoli_Agonist>  (2) 
0.0

>  <UPITT_HCI_U2OS_AR_TIF2_Nucleoli_Antagonist>  (2) 
1.0

>  <UPITT_HCI_U2OS_AR_TIF2_Nucleoli_Cytoplasm_Ratio_Agonist>  (2) 
0.0

>  <UPITT_HCI_U2OS_AR_TIF2_Nucleoli_Cytoplasm_Ratio_Antagonist>  (2) 
1.0

>  <NVS_NR_mERa>  (2) 
1.0

$$$$

     RDKit          3D

 20 23  0  0  0  0  0  0  0  0999 V2000
    0.0000    0.0000    0.0000 C   0  0  0  0  0  0  0  0  0  0  0  0
    0.0000    0.0000    0.0000 C   0  0  0  0  0  0  0  0  0  0  0  0
    0.0000    0.0000    0.0000 C   0  0  0  0  0  0  0  0  0  0  0  0
    0.0000    0.0000    0.0000 C   0  0  0  0  0  0  0  0  0  0  0  0
    0.0000    0.0000    0.0000 C   0  0  0  0  0  0  0  0  0  0  0  0
    0.0000    0.0000    0.0000 C   0  0  0  0  0  0  0  0  0  0  0  0
    0.0000    0.0000    0.0000 C   0  0  0  0  0  0  0  0  0  0  0  0
    0.0000    0.0000    0.0000 C   0  0  0  0  0  0  0  0  0  0  0  0
    0.0000    0.0000    0.0000 C   0  0  0  0  0  0  0  0  0  0  0  0
    0.0000    0.0000    0.0000 C   0  0  0  0  0  0  0  0  0  0  0  0
    0.0000    0.0000    0.0000 C   0  0  0  0  0  0  0  0  0  0  0  0
    0.0000    0.0000    0.0000 C   0  0  0  0  0  0  0  0  0  0  0  0
    0.0000    0.0000    0.0000 C   0  0  0  0  0  0  0  0  0  0  0  0
    0.0000    0.0000    0.0000 C   0  0  0  0  0  0  0  0  0  0  0  0
    0.0000    0.0000    0.0000 O   0  0  0  0  0  0  0  0  0  0  0  0
    0.0000    0.0000    0.0000 C   0  0  0  0  0  0  0  0  0  0  0  0
    0.0000    0.0000    0.0000 C   0  0  0  0  0  0  0  0  0  0  0  0
    0.0000    0.0000    0.0000 C   0  0  0  0  0  0  0  0  0  0  0  0
    0.0000    0.0000    0.0000 C   0  0  0  0  0  0  0  0  0  0  0  0
    0.0000    0.0000    0.0000 O   0  0  0  0  0  0  0  0  0  0  0  0
  1  2  1  0
  2  3  1  0
  3  4  1  0
  4  5  1  0
  5  6  1  0
  6  7  2  0
  7  8  1  0
  8  9  1  0
  9 10  2  0
 10 11  1  0
 11 12  2  0
 12 13  1  0
 13 14  2  0
 13 15  1  0
  6 16  1  0
 16 17  1  0
 17 18  1  0
 18 19  1  0
 19 20  2  0
 16  2  1  0
 19  2  1  0
 10  5  1  0
 14  9  1  0
M  END
>  <CASRN>  (3) 
474-86-2

>  <Name>  (3) 
Equilin

>  <Active>  (3) 
2

>  <Inactive>  (3) 
0

>  <Bioactivity>  (3) 
Active

>  <Min LEL>  (3) 
2.0

>  <Max HDT>  (3) 
nan

>  <Class>  (3) 
1

>  <Code>  (3) 
C474862

>  <NVS_NR_hER>  (3) 
1.0

>  <NVS_NR_cAR>  (3) 
1.0

>  <NVS_NR_hAR>  (3) 
1.0

>  <NVS_NR_hPR>  (3) 
1.0

>  <NVS_NR_rAR>  (3) 
0.0

>  <OT_ER_ERaERb_1440>  (3) 
1.0

>  <OT_FXR_FXRSRC1_0480>  (3) 
1.0

>  <OT_PPARg_PPARgSRC1_1440>  (3) 
0.0

>  <OT_FXR_FXRSRC1_1440>  (3) 
0.0

>  <OT_NURR1_NURR1RXRa_0480>  (3) 
0.0

>  <OT_NURR1_NURR1RXRa_1440>  (3) 
0.0

>  <OT_PPARg_PPARgSRC1_0480>  (3) 
0.0

>  <OT_AR_ARELUC_AG_1440>  (3) 
1.0

>  <OT_ERa_EREGFP_0120>  (3) 
1.0

>  <BSK_3C_HLADR_down>  (3) 
1.0

>  <BSK_3C_Vis_down>  (3) 
0.0

>  <BSK_3C_uPAR_down>  (3) 
0.0

>  <ATG_CAR_TRANS_up>  (3) 
0.0

>  <ATG_E2F_CIS_dn>  (3) 
0.0

>  <ATG_EGR_CIS_up>  (3) 
0.0

>  <ATG_ERa_TRANS_dn>  (3) 
0.0

>  <ATG_ERa_TRANS_up>  (3) 
1.0

>  <ATG_FXR_TRANS_dn>  (3) 
0.0

>  <ATG_GLI_CIS_dn>  (3) 
0.0

>  <ATG_GRE_CIS_up>  (3) 
0.0

>  <ATG_LXRa_TRANS_dn>  (3) 
0.0

>  <ATG_LXRa_TRANS_up>  (3) 
0.0

>  <ATG_NRF1_CIS_up>  (3) 
0.0

>  <ATG_NURR1_TRANS_up>  (3) 
0.0

>  <ATG_Sox_CIS_dn>  (3) 
0.0

>  <ATG_Sox_CIS_up>  (3) 
0.0

>  <ATG_Sp1_CIS_up>  (3) 
0.0

>  <ATG_TGFb_CIS_up>  (3) 
0.0

>  <TOX21_ARE_BLA_agonist_ratio>  (3) 
1.0

>  <TOX21_RAR_LUC_Antagonist>  (3) 
0.0

>  <ATG_LXRb_TRANS_dn>  (3) 
0.0

>  <ATG_CAR_TRANS_dn>  (3) 
0.0

>  <ATG_BRE_CIS_dn>  (3) 
0.0

>  <ATG_E2F_CIS_up>  (3) 
0.0

>  <TOX21_TSHR_Agonist_ratio>  (3) 
0.0

>  <ACEA_ER_80hr>  (3) 
1.0

>  <TOX21_CAR_Agonist_viabillity>  (3) 
0.0

>  <TOX21_PR_BLA_Agonist_viability>  (3) 
1.0

>  <TOX21_RT_HEPG2_FLO_40hr_ctrl_viability>  (3) 
1.0

>  <TOX21_AhR_LUC_Agonist_viability>  (3) 
0.0

>  <TOX21_ERR_viability>  (3) 
1.0

>  <TOX21_p53_BLA_p3_viability>  (3) 
0.0

>  <NVS_NR_hGR>  (3) 
1.0

>  <NVS_NR_bER>  (3) 
1.0

>  <ACEA_AR_agonist_80hr>  (3) 
0.0

>  <ACEA_AR_agonist_AUC_viability>  (3) 
0.0

>  <ACEA_AR_antagonist_80hr>  (3) 
1.0

>  <ACEA_AR_antagonist_AUC_viability>  (3) 
0.0

>  <ACEA_ER_AUC_viability>  (3) 
0.0

>  <ATG_AP_1_CIS_dn>  (3) 
1.0

>  <ATG_AP_1_CIS_up>  (3) 
0.0

>  <ATG_AP_2_CIS_dn>  (3) 
0.0

>  <ATG_AP_2_CIS_up>  (3) 
0.0

>  <ATG_AR_TRANS_dn>  (3) 
0.0

>  <ATG_AR_TRANS_up>  (3) 
0.0

>  <ATG_Ahr_CIS_dn>  (3) 
0.0

>  <ATG_Ahr_CIS_up>  (3) 
0.0

>  <ATG_BRE_CIS_up>  (3) 
0.0

>  <ATG_CMV_CIS_dn>  (3) 
0.0

>  <ATG_CMV_CIS_up>  (3) 
1.0

>  <ATG_CRE_CIS_dn>  (3) 
0.0

>  <ATG_CRE_CIS_up>  (3) 
0.0

>  <ATG_C_EBP_CIS_dn>  (3) 
0.0

>  <ATG_C_EBP_CIS_up>  (3) 
0.0

>  <ATG_DR4_LXR_CIS_dn>  (3) 
0.0

>  <ATG_DR4_LXR_CIS_up>  (3) 
0.0

>  <ATG_DR5_CIS_dn>  (3) 
0.0

>  <ATG_DR5_CIS_up>  (3) 
0.0

>  <ATG_EGR_CIS_dn>  (3) 
0.0

>  <ATG_ERE_CIS_dn>  (3) 
0.0

>  <ATG_ERE_CIS_up>  (3) 
1.0

>  <ATG_ERRa_TRANS_dn>  (3) 
0.0

>  <ATG_ERRa_TRANS_up>  (3) 
0.0

>  <ATG_ERRg_TRANS_dn>  (3) 
0.0

>  <ATG_ERRg_TRANS_up>  (3) 
0.0

>  <ATG_E_Box_CIS_dn>  (3) 
0.0

>  <ATG_E_Box_CIS_up>  (3) 
0.0

>  <ATG_Ets_CIS_dn>  (3) 
0.0

>  <ATG_Ets_CIS_up>  (3) 
0.0

>  <ATG_FXR_TRANS_up>  (3) 
0.0

>  <ATG_FoxA2_CIS_dn>  (3) 
0.0

>  <ATG_FoxA2_CIS_up>  (3) 
0.0

>  <ATG_FoxO_CIS_dn>  (3) 
0.0

>  <ATG_FoxO_CIS_up>  (3) 
0.0

>  <ATG_GAL4_TRANS_dn>  (3) 
1.0

>  <ATG_GAL4_TRANS_up>  (3) 
0.0

>  <ATG_GATA_CIS_dn>  (3) 
0.0

>  <ATG_GATA_CIS_up>  (3) 
0.0

>  <ATG_GLI_CIS_up>  (3) 
0.0

>  <ATG_GRE_CIS_dn>  (3) 
0.0

>  <ATG_GR_TRANS_dn>  (3) 
0.0

>  <ATG_GR_TRANS_up>  (3) 
0.0

>  <ATG_HIF1a_CIS_dn>  (3) 
0.0

>  <ATG_HIF1a_CIS_up>  (3) 
0.0

>  <ATG_HNF4a_TRANS_dn>  (3) 
0.0

>  <ATG_HNF4a_TRANS_up>  (3) 
0.0

>  <ATG_HNF6_CIS_dn>  (3) 
0.0

>  <ATG_HNF6_CIS_up>  (3) 
0.0

>  <ATG_HSE_CIS_dn>  (3) 
0.0

>  <ATG_HSE_CIS_up>  (3) 
0.0

>  <ATG_IR1_CIS_dn>  (3) 
0.0

>  <ATG_IR1_CIS_up>  (3) 
0.0

>  <ATG_ISRE_CIS_dn>  (3) 
0.0

>  <ATG_ISRE_CIS_up>  (3) 
0.0

>  <ATG_LXRb_TRANS_up>  (3) 
0.0

>  <ATG_MRE_CIS_dn>  (3) 
0.0

>  <ATG_MRE_CIS_up>  (3) 
0.0

>  <ATG_M_06_CIS_dn>  (3) 
0.0

>  <ATG_M_06_CIS_up>  (3) 
0.0

>  <ATG_M_06_TRANS_dn>  (3) 
0.0

>  <ATG_M_06_TRANS_up>  (3) 
0.0

>  <ATG_M_19_CIS_dn>  (3) 
0.0

>  <ATG_M_19_CIS_up>  (3) 
0.0

>  <ATG_M_19_TRANS_dn>  (3) 
1.0

>  <ATG_M_19_TRANS_up>  (3) 
0.0

>  <ATG_M_32_CIS_dn>  (3) 
1.0

>  <ATG_M_32_CIS_up>  (3) 
0.0

>  <ATG_M_32_TRANS_dn>  (3) 
1.0

>  <ATG_M_32_TRANS_up>  (3) 
0.0

>  <ATG_M_61_CIS_dn>  (3) 
0.0

>  <ATG_M_61_CIS_up>  (3) 
0.0

>  <ATG_M_61_TRANS_dn>  (3) 
0.0

>  <ATG_M_61_TRANS_up>  (3) 
0.0

>  <ATG_Myb_CIS_dn>  (3) 
0.0

>  <ATG_Myb_CIS_up>  (3) 
0.0

>  <ATG_Myc_CIS_dn>  (3) 
0.0

>  <ATG_Myc_CIS_up>  (3) 
0.0

>  <ATG_NFI_CIS_dn>  (3) 
1.0

>  <ATG_NFI_CIS_up>  (3) 
0.0

>  <ATG_NF_kB_CIS_dn>  (3) 
0.0

>  <ATG_NF_kB_CIS_up>  (3) 
0.0

>  <ATG_NRF1_CIS_dn>  (3) 
0.0

>  <ATG_NRF2_ARE_CIS_dn>  (3) 
0.0

>  <ATG_NRF2_ARE_CIS_up>  (3) 
0.0

>  <ATG_NURR1_TRANS_dn>  (3) 
0.0

>  <ATG_Oct_MLP_CIS_dn>  (3) 
0.0

>  <ATG_Oct_MLP_CIS_up>  (3) 
0.0

>  <ATG_PBREM_CIS_dn>  (3) 
0.0

>  <ATG_PBREM_CIS_up>  (3) 
0.0

>  <ATG_PPARa_TRANS_dn>  (3) 
0.0

>  <ATG_PPARa_TRANS_up>  (3) 
0.0

>  <ATG_PPARd_TRANS_dn>  (3) 
0.0

>  <ATG_PPARd_TRANS_up>  (3) 
0.0

>  <ATG_PPARg_TRANS_dn>  (3) 
0.0

>  <ATG_PPARg_TRANS_up>  (3) 
0.0

>  <ATG_PPRE_CIS_dn>  (3) 
0.0

>  <ATG_PPRE_CIS_up>  (3) 
0.0

>  <ATG_PXRE_CIS_dn>  (3) 
0.0

>  <ATG_PXRE_CIS_up>  (3) 
1.0

>  <ATG_PXR_TRANS_dn>  (3) 
0.0

>  <ATG_PXR_TRANS_up>  (3) 
1.0

>  <ATG_Pax6_CIS_dn>  (3) 
0.0

>  <ATG_Pax6_CIS_up>  (3) 
0.0

>  <ATG_RARa_TRANS_dn>  (3) 
0.0

>  <ATG_RARa_TRANS_up>  (3) 
0.0

>  <ATG_RARb_TRANS_dn>  (3) 
0.0

>  <ATG_RARb_TRANS_up>  (3) 
0.0

>  <ATG_RARg_TRANS_dn>  (3) 
0.0

>  <ATG_RARg_TRANS_up>  (3) 
0.0

>  <ATG_RORE_CIS_dn>  (3) 
1.0

>  <ATG_RORE_CIS_up>  (3) 
0.0

>  <ATG_RORb_TRANS_dn>  (3) 
0.0

>  <ATG_RORb_TRANS_up>  (3) 
0.0

>  <ATG_RORg_TRANS_dn>  (3) 
0.0

>  <ATG_RORg_TRANS_up>  (3) 
0.0

>  <ATG_RXRa_TRANS_dn>  (3) 
0.0

>  <ATG_RXRa_TRANS_up>  (3) 
0.0

>  <ATG_RXRb_TRANS_dn>  (3) 
0.0

>  <ATG_RXRb_TRANS_up>  (3) 
0.0

>  <ATG_SREBP_CIS_dn>  (3) 
0.0

>  <ATG_SREBP_CIS_up>  (3) 
0.0

>  <ATG_STAT3_CIS_dn>  (3) 
0.0

>  <ATG_STAT3_CIS_up>  (3) 
0.0

>  <ATG_Sp1_CIS_dn>  (3) 
0.0

>  <ATG_TAL_CIS_dn>  (3) 
0.0

>  <ATG_TAL_CIS_up>  (3) 
0.0

>  <ATG_TA_CIS_dn>  (3) 
0.0

>  <ATG_TA_CIS_up>  (3) 
0.0

>  <ATG_TCF_b_cat_CIS_dn>  (3) 
0.0

>  <ATG_TCF_b_cat_CIS_up>  (3) 
0.0

>  <ATG_TGFb_CIS_dn>  (3) 
0.0

>  <ATG_THRa1_TRANS_dn>  (3) 
0.0

>  <ATG_THRa1_TRANS_up>  (3) 
0.0

>  <ATG_VDRE_CIS_dn>  (3) 
0.0

>  <ATG_VDRE_CIS_up>  (3) 
0.0

>  <ATG_VDR_TRANS_dn>  (3) 
0.0

>  <ATG_VDR_TRANS_up>  (3) 
0.0

>  <ATG_XTT_Cytotoxicity_up>  (3) 
0.0

>  <ATG_Xbp1_CIS_dn>  (3) 
0.0

>  <ATG_Xbp1_CIS_up>  (3) 
0.0

>  <ATG_p53_CIS_dn>  (3) 
0.0

>  <ATG_p53_CIS_up>  (3) 
0.0

>  <BSK_3C_Eselectin_down>  (3) 
0.0

>  <BSK_3C_Eselectin_up>  (3) 
0.0

>  <BSK_3C_HLADR_up>  (3) 
0.0

>  <BSK_3C_ICAM1_down>  (3) 
0.0

>  <BSK_3C_ICAM1_up>  (3) 
0.0

>  <BSK_3C_IL8_down>  (3) 
0.0

>  <BSK_3C_IL8_up>  (3) 
0.0

>  <BSK_3C_MCP1_down>  (3) 
0.0

>  <BSK_3C_MCP1_up>  (3) 
0.0

>  <BSK_3C_MIG_down>  (3) 
0.0

>  <BSK_3C_MIG_up>  (3) 
0.0

>  <BSK_3C_Proliferation_down>  (3) 
1.0

>  <BSK_3C_Proliferation_up>  (3) 
0.0

>  <BSK_3C_SRB_down>  (3) 
1.0

>  <BSK_3C_SRB_up>  (3) 
0.0

>  <BSK_3C_Thrombomodulin_down>  (3) 
0.0

>  <BSK_3C_Thrombomodulin_up>  (3) 
0.0

>  <BSK_3C_TissueFactor_down>  (3) 
0.0

>  <BSK_3C_TissueFactor_up>  (3) 
0.0

>  <BSK_3C_VCAM1_down>  (3) 
0.0

>  <BSK_3C_VCAM1_up>  (3) 
0.0

>  <BSK_3C_Vis_up>  (3) 
0.0

>  <BSK_3C_uPAR_up>  (3) 
0.0

>  <BSK_4H_Eotaxin3_down>  (3) 
0.0

>  <BSK_4H_Eotaxin3_up>  (3) 
0.0

>  <BSK_4H_MCP1_down>  (3) 
0.0

>  <BSK_4H_MCP1_up>  (3) 
0.0

>  <BSK_4H_Pselectin_down>  (3) 
0.0

>  <BSK_4H_Pselectin_up>  (3) 
0.0

>  <BSK_4H_SRB_down>  (3) 
0.0

>  <BSK_4H_SRB_up>  (3) 
0.0

>  <BSK_4H_VCAM1_down>  (3) 
0.0

>  <BSK_4H_VCAM1_up>  (3) 
0.0

>  <BSK_4H_VEGFRII_down>  (3) 
0.0

>  <BSK_4H_VEGFRII_up>  (3) 
0.0

>  <BSK_4H_uPAR_down>  (3) 
0.0

>  <BSK_4H_uPAR_up>  (3) 
0.0

>  <BSK_BE3C_HLADR_down>  (3) 
0.0

>  <BSK_BE3C_HLADR_up>  (3) 
0.0

>  <BSK_BE3C_IL1a_down>  (3) 
0.0

>  <BSK_BE3C_IL1a_up>  (3) 
0.0

>  <BSK_BE3C_IP10_down>  (3) 
1.0

>  <BSK_BE3C_IP10_up>  (3) 
0.0

>  <BSK_BE3C_MIG_down>  (3) 
0.0

>  <BSK_BE3C_MIG_up>  (3) 
0.0

>  <BSK_BE3C_MMP1_down>  (3) 
0.0

>  <BSK_BE3C_MMP1_up>  (3) 
0.0

>  <BSK_BE3C_PAI1_down>  (3) 
1.0

>  <BSK_BE3C_PAI1_up>  (3) 
0.0

>  <BSK_BE3C_SRB_down>  (3) 
0.0

>  <BSK_BE3C_SRB_up>  (3) 
0.0

>  <BSK_BE3C_TGFb1_down>  (3) 
0.0

>  <BSK_BE3C_TGFb1_up>  (3) 
0.0

>  <BSK_BE3C_tPA_down>  (3) 
0.0

>  <BSK_BE3C_tPA_up>  (3) 
0.0

>  <BSK_BE3C_uPAR_down>  (3) 
0.0

>  <BSK_BE3C_uPAR_up>  (3) 
0.0

>  <BSK_BE3C_uPA_down>  (3) 
0.0

>  <BSK_BE3C_uPA_up>  (3) 
0.0

>  <BSK_CASM3C_HLADR_down>  (3) 
0.0

>  <BSK_CASM3C_HLADR_up>  (3) 
0.0

>  <BSK_CASM3C_IL6_down>  (3) 
0.0

>  <BSK_CASM3C_IL6_up>  (3) 
0.0

>  <BSK_CASM3C_IL8_down>  (3) 
0.0

>  <BSK_CASM3C_IL8_up>  (3) 
0.0

>  <BSK_CASM3C_LDLR_down>  (3) 
0.0

>  <BSK_CASM3C_LDLR_up>  (3) 
1.0

>  <BSK_CASM3C_MCP1_down>  (3) 
0.0

>  <BSK_CASM3C_MCP1_up>  (3) 
0.0

>  <BSK_CASM3C_MCSF_down>  (3) 
0.0

>  <BSK_CASM3C_MCSF_up>  (3) 
0.0

>  <BSK_CASM3C_MIG_down>  (3) 
0.0

>  <BSK_CASM3C_MIG_up>  (3) 
0.0

>  <BSK_CASM3C_Proliferation_down>  (3) 
0.0

>  <BSK_CASM3C_Proliferation_up>  (3) 
0.0

>  <BSK_CASM3C_SAA_down>  (3) 
0.0

>  <BSK_CASM3C_SAA_up>  (3) 
0.0

>  <BSK_CASM3C_SRB_down>  (3) 
0.0

>  <BSK_CASM3C_SRB_up>  (3) 
0.0

>  <BSK_CASM3C_Thrombomodulin_down>  (3) 
0.0

>  <BSK_CASM3C_Thrombomodulin_up>  (3) 
0.0

>  <BSK_CASM3C_TissueFactor_down>  (3) 
0.0

>  <BSK_CASM3C_TissueFactor_up>  (3) 
0.0

>  <BSK_CASM3C_VCAM1_down>  (3) 
0.0

>  <BSK_CASM3C_VCAM1_up>  (3) 
0.0

>  <BSK_CASM3C_uPAR_down>  (3) 
0.0

>  <BSK_CASM3C_uPAR_up>  (3) 
0.0

>  <BSK_KF3CT_ICAM1_down>  (3) 
0.0

>  <BSK_KF3CT_ICAM1_up>  (3) 
0.0

>  <BSK_KF3CT_IL1a_down>  (3) 
0.0

>  <BSK_KF3CT_IL1a_up>  (3) 
0.0

>  <BSK_KF3CT_IP10_down>  (3) 
0.0

>  <BSK_KF3CT_IP10_up>  (3) 
0.0

>  <BSK_KF3CT_MCP1_down>  (3) 
0.0

>  <BSK_KF3CT_MCP1_up>  (3) 
0.0

>  <BSK_KF3CT_MMP9_down>  (3) 
0.0

>  <BSK_KF3CT_MMP9_up>  (3) 
0.0

>  <BSK_KF3CT_SRB_down>  (3) 
0.0

>  <BSK_KF3CT_SRB_up>  (3) 
0.0

>  <BSK_KF3CT_TGFb1_down>  (3) 
0.0

>  <BSK_KF3CT_TGFb1_up>  (3) 
0.0

>  <BSK_KF3CT_TIMP2_down>  (3) 
0.0

>  <BSK_KF3CT_TIMP2_up>  (3) 
0.0

>  <BSK_KF3CT_uPA_down>  (3) 
0.0

>  <BSK_KF3CT_uPA_up>  (3) 
0.0

>  <BSK_LPS_CD40_down>  (3) 
0.0

>  <BSK_LPS_CD40_up>  (3) 
0.0

>  <BSK_LPS_Eselectin_down>  (3) 
0.0

>  <BSK_LPS_Eselectin_up>  (3) 
0.0

>  <BSK_LPS_IL1a_down>  (3) 
0.0

>  <BSK_LPS_IL1a_up>  (3) 
0.0

>  <BSK_LPS_IL8_down>  (3) 
0.0

>  <BSK_LPS_IL8_up>  (3) 
0.0

>  <BSK_LPS_MCP1_down>  (3) 
0.0

>  <BSK_LPS_MCP1_up>  (3) 
0.0

>  <BSK_LPS_MCSF_down>  (3) 
0.0

>  <BSK_LPS_MCSF_up>  (3) 
0.0

>  <BSK_LPS_PGE2_down>  (3) 
0.0

>  <BSK_LPS_PGE2_up>  (3) 
0.0

>  <BSK_LPS_SRB_down>  (3) 
0.0

>  <BSK_LPS_SRB_up>  (3) 
0.0

>  <BSK_LPS_TNFa_down>  (3) 
0.0

>  <BSK_LPS_TNFa_up>  (3) 
0.0

>  <BSK_LPS_TissueFactor_down>  (3) 
0.0

>  <BSK_LPS_TissueFactor_up>  (3) 
0.0

>  <BSK_LPS_VCAM1_down>  (3) 
0.0

>  <BSK_LPS_VCAM1_up>  (3) 
0.0

>  <BSK_SAg_CD38_down>  (3) 
0.0

>  <BSK_SAg_CD38_up>  (3) 
0.0

>  <BSK_SAg_CD40_down>  (3) 
0.0

>  <BSK_SAg_CD40_up>  (3) 
0.0

>  <BSK_SAg_CD69_down>  (3) 
0.0

>  <BSK_SAg_CD69_up>  (3) 
0.0

>  <BSK_SAg_Eselectin_down>  (3) 
0.0

>  <BSK_SAg_Eselectin_up>  (3) 
0.0

>  <BSK_SAg_IL8_down>  (3) 
0.0

>  <BSK_SAg_IL8_up>  (3) 
0.0

>  <BSK_SAg_MCP1_down>  (3) 
0.0

>  <BSK_SAg_MCP1_up>  (3) 
0.0

>  <BSK_SAg_MIG_down>  (3) 
0.0

>  <BSK_SAg_MIG_up>  (3) 
0.0

>  <BSK_SAg_PBMCCytotoxicity_down>  (3) 
0.0

>  <BSK_SAg_PBMCCytotoxicity_up>  (3) 
0.0

>  <BSK_SAg_Proliferation_down>  (3) 
0.0

>  <BSK_SAg_Proliferation_up>  (3) 
0.0

>  <BSK_SAg_SRB_down>  (3) 
0.0

>  <BSK_SAg_SRB_up>  (3) 
0.0

>  <BSK_hDFCGF_CollagenIII_down>  (3) 
0.0

>  <BSK_hDFCGF_CollagenIII_up>  (3) 
0.0

>  <BSK_hDFCGF_EGFR_down>  (3) 
0.0

>  <BSK_hDFCGF_EGFR_up>  (3) 
0.0

>  <BSK_hDFCGF_IL8_down>  (3) 
0.0

>  <BSK_hDFCGF_IL8_up>  (3) 
0.0

>  <BSK_hDFCGF_IP10_down>  (3) 
0.0

>  <BSK_hDFCGF_IP10_up>  (3) 
0.0

>  <BSK_hDFCGF_MCSF_down>  (3) 
0.0

>  <BSK_hDFCGF_MCSF_up>  (3) 
0.0

>  <BSK_hDFCGF_MIG_down>  (3) 
0.0

>  <BSK_hDFCGF_MIG_up>  (3) 
0.0

>  <BSK_hDFCGF_MMP1_down>  (3) 
0.0

>  <BSK_hDFCGF_MMP1_up>  (3) 
0.0

>  <BSK_hDFCGF_PAI1_down>  (3) 
0.0

>  <BSK_hDFCGF_PAI1_up>  (3) 
0.0

>  <BSK_hDFCGF_Proliferation_down>  (3) 
0.0

>  <BSK_hDFCGF_Proliferation_up>  (3) 
0.0

>  <BSK_hDFCGF_SRB_down>  (3) 
0.0

>  <BSK_hDFCGF_SRB_up>  (3) 
0.0

>  <BSK_hDFCGF_TIMP1_down>  (3) 
0.0

>  <BSK_hDFCGF_TIMP1_up>  (3) 
0.0

>  <BSK_hDFCGF_VCAM1_down>  (3) 
0.0

>  <BSK_hDFCGF_VCAM1_up>  (3) 
0.0

>  <CEETOX_H295R_11DCORT_dn>  (3) 
1.0

>  <CEETOX_H295R_11DCORT_up>  (3) 
0.0

>  <CEETOX_H295R_ANDR_dn>  (3) 
1.0

>  <CEETOX_H295R_ANDR_up>  (3) 
0.0

>  <CEETOX_H295R_CORTIC_dn>  (3) 
0.0

>  <CEETOX_H295R_CORTIC_up>  (3) 
0.0

>  <CEETOX_H295R_CORTISOL_dn>  (3) 
1.0

>  <CEETOX_H295R_CORTISOL_up>  (3) 
0.0

>  <CEETOX_H295R_DOC_dn>  (3) 
1.0

>  <CEETOX_H295R_DOC_up>  (3) 
0.0

>  <CEETOX_H295R_ESTRADIOL_dn>  (3) 
0.0

>  <CEETOX_H295R_ESTRADIOL_up>  (3) 
1.0

>  <CEETOX_H295R_ESTRONE_dn>  (3) 
1.0

>  <CEETOX_H295R_ESTRONE_up>  (3) 
0.0

>  <CEETOX_H295R_MTT_cell_viability_dn>  (3) 
0.0

>  <CEETOX_H295R_MTT_cell_viability_up>  (3) 
0.0

>  <CEETOX_H295R_OHPREG_dn>  (3) 
0.0

>  <CEETOX_H295R_OHPREG_up>  (3) 
1.0

>  <CEETOX_H295R_OHPROG_dn>  (3) 
1.0

>  <CEETOX_H295R_OHPROG_up>  (3) 
0.0

>  <CEETOX_H295R_PROG_dn>  (3) 
1.0

>  <CEETOX_H295R_PROG_up>  (3) 
0.0

>  <CEETOX_H295R_TESTO_dn>  (3) 
1.0

>  <CEETOX_H295R_TESTO_up>  (3) 
0.0

>  <NCCT_HEK293T_CellTiterGLO>  (3) 
1.0

>  <NCCT_QuantiLum_inhib_2_dn>  (3) 
1.0

>  <NCCT_TPO_AUR_dn>  (3) 
1.0

>  <NVS_ADME_hCYP2C19>  (3) 
1.0

>  <NVS_ADME_hCYP2C19_Activator>  (3) 
0.0

>  <NVS_ADME_hCYP2D6>  (3) 
1.0

>  <NVS_ADME_hCYP2D6_Activator>  (3) 
0.0

>  <NVS_GPCR_gLTD4>  (3) 
0.0

>  <NVS_GPCR_rTRH>  (3) 
0.0

>  <NVS_NR_hPXR>  (3) 
0.0

>  <NVS_NR_hRARa_Agonist>  (3) 
0.0

>  <NVS_TR_gDAT>  (3) 
1.0

>  <NVS_TR_hDAT>  (3) 
1.0

>  <NVS_TR_rSERT>  (3) 
1.0

>  <OT_AR_ARSRC1_0480>  (3) 
1.0

>  <OT_AR_ARSRC1_0960>  (3) 
1.0

>  <OT_ER_ERaERa_0480>  (3) 
1.0

>  <OT_ER_ERaERa_1440>  (3) 
1.0

>  <OT_ER_ERaERb_0480>  (3) 
1.0

>  <OT_ER_ERbERb_0480>  (3) 
1.0

>  <OT_ER_ERbERb_1440>  (3) 
1.0

>  <OT_ERa_EREGFP_0480>  (3) 
1.0

>  <TOX21_AP1_BLA_Agonist_ch1>  (3) 
0.0

>  <TOX21_AP1_BLA_Agonist_ch2>  (3) 
0.0

>  <TOX21_AP1_BLA_Agonist_ratio>  (3) 
0.0

>  <TOX21_AP1_BLA_Agonist_viability>  (3) 
1.0

>  <TOX21_ARE_BLA_Agonist_ch1>  (3) 
0.0

>  <TOX21_ARE_BLA_Agonist_ch2>  (3) 
1.0

>  <TOX21_ARE_BLA_agonist_viability>  (3) 
0.0

>  <TOX21_AR_BLA_Agonist_ch1>  (3) 
0.0

>  <TOX21_AR_BLA_Agonist_ch2>  (3) 
1.0

>  <TOX21_AR_BLA_Agonist_ratio>  (3) 
1.0

>  <TOX21_AR_BLA_Antagonist_ch1>  (3) 
1.0

>  <TOX21_AR_BLA_Antagonist_ch2>  (3) 
1.0

>  <TOX21_AR_BLA_Antagonist_ratio>  (3) 
1.0

>  <TOX21_AR_BLA_Antagonist_viability>  (3) 
1.0

>  <TOX21_AR_LUC_MDAKB2_Agonist>  (3) 
1.0

>  <TOX21_AR_LUC_MDAKB2_Agonist_3uM_Nilutamide>  (3) 
1.0

>  <TOX21_AR_LUC_MDAKB2_Agonist_3uM_Nilutamide_viability>  (3) 
0.0

>  <TOX21_AR_LUC_MDAKB2_Antagonist_0.5nM_R1881>  (3) 
1.0

>  <TOX21_AR_LUC_MDAKB2_Antagonist_0.5nM_R1881_viability>  (3) 
0.0

>  <TOX21_AR_LUC_MDAKB2_Antagonist_10nM_R1881>  (3) 
1.0

>  <TOX21_AR_LUC_MDAKB2_Antagonist_10nM_R1881_viability>  (3) 
0.0

>  <TOX21_AhR_LUC_Agonist>  (3) 
0.0

>  <TOX21_Aromatase_Inhibition>  (3) 
0.0

>  <TOX21_Aromatase_Inhibition_viability>  (3) 
1.0

>  <TOX21_AutoFluor_HEK293_Cell_blue>  (3) 
0.0

>  <TOX21_AutoFluor_HEK293_Cell_green>  (3) 
0.0

>  <TOX21_AutoFluor_HEK293_Cell_red>  (3) 
0.0

>  <TOX21_AutoFluor_HEK293_Media_blue>  (3) 
0.0

>  <TOX21_AutoFluor_HEK293_Media_green>  (3) 
0.0

>  <TOX21_AutoFluor_HEK293_Media_red>  (3) 
0.0

>  <TOX21_AutoFluor_HEPG2_Cell_blue>  (3) 
0.0

>  <TOX21_AutoFluor_HEPG2_Cell_green>  (3) 
0.0

>  <TOX21_AutoFluor_HEPG2_Cell_red>  (3) 
0.0

>  <TOX21_AutoFluor_HEPG2_Media_blue>  (3) 
0.0

>  <TOX21_AutoFluor_HEPG2_Media_green>  (3) 
0.0

>  <TOX21_AutoFluor_HEPG2_Media_red>  (3) 
0.0

>  <TOX21_CAR_Agonist>  (3) 
1.0

>  <TOX21_CAR_Antagonist>  (3) 
0.0

>  <TOX21_CAR_Antagonist_viability>  (3) 
0.0

>  <TOX21_CASP3_CHO>  (3) 
0.0

>  <TOX21_CASP3_CHO_viability>  (3) 
1.0

>  <TOX21_CASP3_HEPG2>  (3) 
0.0

>  <TOX21_CASP3_HEPG2_viability>  (3) 
0.0

>  <TOX21_DT40>  (3) 
1.0

>  <TOX21_DT40_100>  (3) 
1.0

>  <TOX21_DT40_657>  (3) 
1.0

>  <TOX21_ELG1_LUC_Agonist>  (3) 
0.0

>  <TOX21_ELG1_LUC_Agonist_viability>  (3) 
0.0

>  <TOX21_ERR_Agonist>  (3) 
0.0

>  <TOX21_ERR_Antagonist>  (3) 
1.0

>  <TOX21_ERa_BLA_Agonist_ch1>  (3) 
1.0

>  <TOX21_ERa_BLA_Agonist_ch2>  (3) 
1.0

>  <TOX21_ERa_BLA_Agonist_ratio>  (3) 
1.0

>  <TOX21_ERa_BLA_Antagonist_ch1>  (3) 
0.0

>  <TOX21_ERa_BLA_Antagonist_ch2>  (3) 
0.0

>  <TOX21_ERa_BLA_Antagonist_ratio>  (3) 
0.0

>  <TOX21_ERa_BLA_Antagonist_viability>  (3) 
0.0

>  <TOX21_ERa_LUC_VM7_Agonist>  (3) 
1.0

>  <TOX21_ERa_LUC_VM7_Agonist_10nM_ICI182780>  (3) 
1.0

>  <TOX21_ERa_LUC_VM7_Agonist_10nM_ICI182780_viability>  (3) 
0.0

>  <TOX21_ERa_LUC_VM7_Antagonist_0.1nM_E2>  (3) 
0.0

>  <TOX21_ERa_LUC_VM7_Antagonist_0.1nM_E2_viability>  (3) 
0.0

>  <TOX21_ERa_LUC_VM7_Antagonist_0.5nM_E2>  (3) 
0.0

>  <TOX21_ERa_LUC_VM7_Antagonist_0.5nM_E2_viability>  (3) 
0.0

>  <TOX21_ERb_BLA_Agonist_ch1>  (3) 
0.0

>  <TOX21_ERb_BLA_Agonist_ch2>  (3) 
1.0

>  <TOX21_ERb_BLA_Agonist_ratio>  (3) 
1.0

>  <TOX21_ERb_BLA_Agonist_viability>  (3) 
1.0

>  <TOX21_ERb_BLA_Antagonist_ch1>  (3) 
1.0

>  <TOX21_ERb_BLA_Antagonist_ch2>  (3) 
0.0

>  <TOX21_ERb_BLA_Antagonist_ratio>  (3) 
0.0

>  <TOX21_ERb_BLA_Antagonist_viability>  (3) 
1.0

>  <TOX21_ESRE_BLA_ch1>  (3) 
0.0

>  <TOX21_ESRE_BLA_ch2>  (3) 
0.0

>  <TOX21_ESRE_BLA_ratio>  (3) 
0.0

>  <TOX21_ESRE_BLA_viability>  (3) 
1.0

>  <TOX21_FXR_BLA_Antagonist_ch1>  (3) 
1.0

>  <TOX21_FXR_BLA_Antagonist_ch2>  (3) 
1.0

>  <TOX21_FXR_BLA_agonist_ch1>  (3) 
0.0

>  <TOX21_FXR_BLA_agonist_ch2>  (3) 
0.0

>  <TOX21_FXR_BLA_agonist_ratio>  (3) 
0.0

>  <TOX21_FXR_BLA_agonist_viability>  (3) 
0.0

>  <TOX21_FXR_BLA_antagonist_ratio>  (3) 
1.0

>  <TOX21_FXR_BLA_antagonist_viability>  (3) 
0.0

>  <TOX21_GR_BLA_Agonist_ch1>  (3) 
0.0

>  <TOX21_GR_BLA_Agonist_ch2>  (3) 
0.0

>  <TOX21_GR_BLA_Agonist_ratio>  (3) 
0.0

>  <TOX21_GR_BLA_Antagonist_ch1>  (3) 
0.0

>  <TOX21_GR_BLA_Antagonist_ch2>  (3) 
1.0

>  <TOX21_GR_BLA_Antagonist_ratio>  (3) 
1.0

>  <TOX21_GR_BLA_Antagonist_viability>  (3) 
0.0

>  <TOX21_H2AX_HTRF_CHO_Agonist_ch1>  (3) 
0.0

>  <TOX21_H2AX_HTRF_CHO_Agonist_ch2>  (3) 
0.0

>  <TOX21_H2AX_HTRF_CHO_Agonist_ratio>  (3) 
0.0

>  <TOX21_H2AX_HTRF_CHO_viability>  (3) 
1.0

>  <TOX21_HDAC_Inhibition>  (3) 
0.0

>  <TOX21_HDAC_Inhibition_viability>  (3) 
0.0

>  <TOX21_HRE_BLA_Agonist_ch1>  (3) 
0.0

>  <TOX21_HRE_BLA_Agonist_ch2>  (3) 
0.0

>  <TOX21_HRE_BLA_Agonist_ratio>  (3) 
0.0

>  <TOX21_HRE_BLA_Agonist_viability>  (3) 
1.0

>  <TOX21_HSE_BLA_agonist_ch1>  (3) 
0.0

>  <TOX21_HSE_BLA_agonist_ch2>  (3) 
0.0

>  <TOX21_HSE_BLA_agonist_ratio>  (3) 
0.0

>  <TOX21_HSE_BLA_agonist_viability>  (3) 
0.0

>  <TOX21_LUC_Biochem>  (3) 
0.0

>  <TOX21_MMP_fitc>  (3) 
0.0

>  <TOX21_MMP_ratio_down>  (3) 
1.0

>  <TOX21_MMP_ratio_up>  (3) 
0.0

>  <TOX21_MMP_rhodamine>  (3) 
1.0

>  <TOX21_MMP_viability>  (3) 
0.0

>  <TOX21_NFkB_BLA_agonist_ch1>  (3) 
0.0

>  <TOX21_NFkB_BLA_agonist_ch2>  (3) 
0.0

>  <TOX21_NFkB_BLA_agonist_ratio>  (3) 
0.0

>  <TOX21_NFkB_BLA_agonist_viability>  (3) 
1.0

>  <TOX21_PGC_ERR_Agonist>  (3) 
0.0

>  <TOX21_PGC_ERR_Antagonist>  (3) 
0.0

>  <TOX21_PGC_ERR_viability>  (3) 
1.0

>  <TOX21_PPARd_BLA_Agonist_viability>  (3) 
0.0

>  <TOX21_PPARd_BLA_Antagonist_ch1>  (3) 
0.0

>  <TOX21_PPARd_BLA_Antagonist_ch2>  (3) 
0.0

>  <TOX21_PPARd_BLA_agonist_ch1>  (3) 
0.0

>  <TOX21_PPARd_BLA_agonist_ch2>  (3) 
0.0

>  <TOX21_PPARd_BLA_agonist_ratio>  (3) 
0.0

>  <TOX21_PPARd_BLA_antagonist_ratio>  (3) 
0.0

>  <TOX21_PPARd_BLA_antagonist_viability>  (3) 
0.0

>  <TOX21_PPARg_BLA_Agonist_ch1>  (3) 
0.0

>  <TOX21_PPARg_BLA_Agonist_ch2>  (3) 
0.0

>  <TOX21_PPARg_BLA_Agonist_ratio>  (3) 
0.0

>  <TOX21_PPARg_BLA_Antagonist_ch1>  (3) 
0.0

>  <TOX21_PPARg_BLA_Antagonist_ch2>  (3) 
0.0

>  <TOX21_PPARg_BLA_antagonist_ratio>  (3) 
1.0

>  <TOX21_PPARg_BLA_antagonist_viability>  (3) 
0.0

>  <TOX21_PR_BLA_Agonist_ch1>  (3) 
0.0

>  <TOX21_PR_BLA_Agonist_ch2>  (3) 
0.0

>  <TOX21_PR_BLA_Agonist_ratio>  (3) 
0.0

>  <TOX21_PR_BLA_Antagonist_ch1>  (3) 
1.0

>  <TOX21_PR_BLA_Antagonist_ch2>  (3) 
1.0

>  <TOX21_PR_BLA_Antagonist_ratio>  (3) 
1.0

>  <TOX21_PR_BLA_Antagonist_viability>  (3) 
1.0

>  <TOX21_PXR_Agonist>  (3) 
0.0

>  <TOX21_PXR_viability>  (3) 
1.0

>  <TOX21_RAR_LUC_Agonist>  (3) 
0.0

>  <TOX21_RAR_LUC_Agonist_viability>  (3) 
0.0

>  <TOX21_RAR_LUC_Antagonist_viability>  (3) 
0.0

>  <TOX21_RORg_LUC_CHO_Antagonist>  (3) 
0.0

>  <TOX21_RORg_LUC_CHO_Antagonist_viability>  (3) 
0.0

>  <TOX21_RT_HEK293_FLO_00hr_viability>  (3) 
0.0

>  <TOX21_RT_HEK293_FLO_08hr_viability>  (3) 
0.0

>  <TOX21_RT_HEK293_FLO_16hr_viability>  (3) 
0.0

>  <TOX21_RT_HEK293_FLO_24hr_viability>  (3) 
0.0

>  <TOX21_RT_HEK293_FLO_32hr_viability>  (3) 
0.0

>  <TOX21_RT_HEK293_FLO_40hr_viability>  (3) 
0.0

>  <TOX21_RT_HEK293_GLO_00hr_viability>  (3) 
0.0

>  <TOX21_RT_HEK293_GLO_08hr_viability>  (3) 
1.0

>  <TOX21_RT_HEK293_GLO_16hr_viability>  (3) 
1.0

>  <TOX21_RT_HEK293_GLO_24hr_viability>  (3) 
1.0

>  <TOX21_RT_HEK293_GLO_32hr_viability>  (3) 
1.0

>  <TOX21_RT_HEK293_GLO_40hr_viability>  (3) 
1.0

>  <TOX21_RT_HEPG2_FLO_00hr_ctrl_viability>  (3) 
0.0

>  <TOX21_RT_HEPG2_FLO_08hr_viability>  (3) 
0.0

>  <TOX21_RT_HEPG2_FLO_16hr_ctrl_viability>  (3) 
0.0

>  <TOX21_RT_HEPG2_FLO_24hr_viability>  (3) 
0.0

>  <TOX21_RT_HEPG2_FLO_32hr_ctrl_viability>  (3) 
1.0

>  <TOX21_RT_HEPG2_GLO_00hr_ctrl_viability>  (3) 
1.0

>  <TOX21_RT_HEPG2_GLO_08hr_ctrl_viability>  (3) 
1.0

>  <TOX21_RT_HEPG2_GLO_16hr_ctrl_viability>  (3) 
1.0

>  <TOX21_RT_HEPG2_GLO_24hr_ctrl_viability>  (3) 
1.0

>  <TOX21_RT_HEPG2_GLO_32hr_ctrl_viability>  (3) 
0.0

>  <TOX21_RT_HEPG2_GLO_40hr_viability>  (3) 
0.0

>  <TOX21_RXR_BLA_Agonist_ch1>  (3) 
0.0

>  <TOX21_RXR_BLA_Agonist_ch2>  (3) 
0.0

>  <TOX21_RXR_BLA_Agonist_ratio>  (3) 
0.0

>  <TOX21_RXR_BLA_Agonist_viability>  (3) 
1.0

>  <TOX21_SBE_BLA_Agonist_ch1>  (3) 
0.0

>  <TOX21_SBE_BLA_Agonist_ch2>  (3) 
0.0

>  <TOX21_SBE_BLA_Agonist_ratio>  (3) 
0.0

>  <TOX21_SBE_BLA_Agonist_viability>  (3) 
0.0

>  <TOX21_SBE_BLA_Antagonist_ch1>  (3) 
0.0

>  <TOX21_SBE_BLA_Antagonist_ch2>  (3) 
1.0

>  <TOX21_SBE_BLA_Antagonist_ratio>  (3) 
1.0

>  <TOX21_SBE_BLA_Antagonist_viability>  (3) 
0.0

>  <TOX21_SSH_3T3_GLI3_Agonist>  (3) 
0.0

>  <TOX21_SSH_3T3_GLI3_Agonist_viability>  (3) 
0.0

>  <TOX21_SSH_3T3_GLI3_Antagonist>  (3) 
1.0

>  <TOX21_SSH_3T3_GLI3_Antagonist_viability>  (3) 
1.0

>  <TOX21_TRA_COA_Agonist_Followup_ch1>  (3) 
0.0

>  <TOX21_TRA_COA_Agonist_Followup_ch2>  (3) 
0.0

>  <TOX21_TRA_COA_Agonist_Followup_ratio>  (3) 
0.0

>  <TOX21_TRB_BLA_Agonist_Followup_ch1>  (3) 
0.0

>  <TOX21_TRB_BLA_Agonist_Followup_ch2>  (3) 
0.0

>  <TOX21_TRB_BLA_Agonist_Followup_ratio>  (3) 
0.0

>  <TOX21_TRB_BLA_Agonist_Followup_viability>  (3) 
0.0

>  <TOX21_TRB_COA_Agonist_Followup_ch1>  (3) 
0.0

>  <TOX21_TRB_COA_Agonist_Followup_ch2>  (3) 
0.0

>  <TOX21_TRB_COA_Agonist_Followup_ratio>  (3) 
0.0

>  <TOX21_TRHR_HEK293_Agonist>  (3) 
0.0

>  <TOX21_TRHR_HEK293_Antagonist>  (3) 
0.0

>  <TOX21_TR_LUC_GH3_Agonist>  (3) 
1.0

>  <TOX21_TR_LUC_GH3_Agonist_Followup>  (3) 
0.0

>  <TOX21_TR_LUC_GH3_Antagonist>  (3) 
1.0

>  <TOX21_TR_LUC_GH3_Antagonist_viability>  (3) 
1.0

>  <TOX21_TR_RXR_BLA_Agonist_Followup_ch1>  (3) 
0.0

>  <TOX21_TR_RXR_BLA_Agonist_Followup_ch2>  (3) 
0.0

>  <TOX21_TR_RXR_BLA_Agonist_Followup_ratio>  (3) 
1.0

>  <TOX21_TR_RXR_BLA_Agonist_Followup_viability>  (3) 
0.0

>  <TOX21_TSHR_Agonist_ch2>  (3) 
0.0

>  <TOX21_TSHR_Antagonist_ch2>  (3) 
0.0

>  <TOX21_TSHR_Antagonist_ratio>  (3) 
0.0

>  <TOX21_TSHR_HTRF_Agonist_ch1>  (3) 
0.0

>  <TOX21_TSHR_HTRF_Antagonist_ch1>  (3) 
1.0

>  <TOX21_TSHR_wt_HTRF_ch1>  (3) 
0.0

>  <TOX21_TSHR_wt_ch2>  (3) 
0.0

>  <TOX21_TSHR_wt_ratio>  (3) 
0.0

>  <TOX21_VDR_BLA_Agonist_viability>  (3) 
0.0

>  <TOX21_VDR_BLA_Antagonist_ch1>  (3) 
0.0

>  <TOX21_VDR_BLA_Antagonist_ch2>  (3) 
0.0

>  <TOX21_VDR_BLA_agonist_ch1>  (3) 
0.0

>  <TOX21_VDR_BLA_agonist_ch2>  (3) 
0.0

>  <TOX21_VDR_BLA_agonist_ratio>  (3) 
0.0

>  <TOX21_VDR_BLA_antagonist_ratio>  (3) 
0.0

>  <TOX21_VDR_BLA_antagonist_viability>  (3) 
0.0

>  <TOX21_p53_BLA_p1_ch1>  (3) 
0.0

>  <TOX21_p53_BLA_p1_ch2>  (3) 
0.0

>  <TOX21_p53_BLA_p1_ratio>  (3) 
0.0

>  <TOX21_p53_BLA_p1_viability>  (3) 
0.0

>  <TOX21_p53_BLA_p2_ch1>  (3) 
0.0

>  <TOX21_p53_BLA_p2_ch2>  (3) 
0.0

>  <TOX21_p53_BLA_p2_ratio>  (3) 
0.0

>  <TOX21_p53_BLA_p2_viability>  (3) 
0.0

>  <TOX21_p53_BLA_p3_ch1>  (3) 
0.0

>  <TOX21_p53_BLA_p3_ch2>  (3) 
0.0

>  <TOX21_p53_BLA_p3_ratio>  (3) 
0.0

>  <TOX21_p53_BLA_p4_ch1>  (3) 
0.0

>  <TOX21_p53_BLA_p4_ch2>  (3) 
0.0

>  <TOX21_p53_BLA_p4_ratio>  (3) 
0.0

>  <TOX21_p53_BLA_p4_viability>  (3) 
1.0

>  <TOX21_p53_BLA_p5_ch1>  (3) 
0.0

>  <TOX21_p53_BLA_p5_ch2>  (3) 
0.0

>  <TOX21_p53_BLA_p5_ratio>  (3) 
0.0

>  <TOX21_p53_BLA_p5_viability>  (3) 
0.0

>  <UPITT_HCI_U2OS_AR_TIF2_Nucleoli_Agonist>  (3) 
0.0

>  <UPITT_HCI_U2OS_AR_TIF2_Nucleoli_Antagonist>  (3) 
1.0

>  <UPITT_HCI_U2OS_AR_TIF2_Nucleoli_Cytoplasm_Ratio_Agonist>  (3) 
0.0

>  <UPITT_HCI_U2OS_AR_TIF2_Nucleoli_Cytoplasm_Ratio_Antagonist>  (3) 
1.0

>  <NVS_NR_mERa>  (3) 
0

$$$$

     RDKit          3D

 20 23  0  0  0  0  0  0  0  0999 V2000
    0.0000    0.0000    0.0000 C   0  0  0  0  0  0  0  0  0  0  0  0
    0.0000    0.0000    0.0000 C   0  0  0  0  0  0  0  0  0  0  0  0
    0.0000    0.0000    0.0000 C   0  0  0  0  0  0  0  0  0  0  0  0
    0.0000    0.0000    0.0000 C   0  0  0  0  0  0  0  0  0  0  0  0
    0.0000    0.0000    0.0000 C   0  0  0  0  0  0  0  0  0  0  0  0
    0.0000    0.0000    0.0000 C   0  0  0  0  0  0  0  0  0  0  0  0
    0.0000    0.0000    0.0000 C   0  0  0  0  0  0  0  0  0  0  0  0
    0.0000    0.0000    0.0000 C   0  0  0  0  0  0  0  0  0  0  0  0
    0.0000    0.0000    0.0000 C   0  0  0  0  0  0  0  0  0  0  0  0
    0.0000    0.0000    0.0000 C   0  0  0  0  0  0  0  0  0  0  0  0
    0.0000    0.0000    0.0000 O   0  0  0  0  0  0  0  0  0  0  0  0
    0.0000    0.0000    0.0000 C   0  0  0  0  0  0  0  0  0  0  0  0
    0.0000    0.0000    0.0000 C   0  0  0  0  0  0  0  0  0  0  0  0
    0.0000    0.0000    0.0000 C   0  0  0  0  0  0  0  0  0  0  0  0
    0.0000    0.0000    0.0000 C   0  0  0  0  0  0  0  0  0  0  0  0
    0.0000    0.0000    0.0000 C   0  0  0  0  0  0  0  0  0  0  0  0
    0.0000    0.0000    0.0000 C   0  0  0  0  0  0  0  0  0  0  0  0
    0.0000    0.0000    0.0000 C   0  0  0  0  0  0  0  0  0  0  0  0
    0.0000    0.0000    0.0000 C   0  0  0  0  0  0  0  0  0  0  0  0
    0.0000    0.0000    0.0000 O   0  0  0  0  0  0  0  0  0  0  0  0
  1  2  1  0
  2  3  1  0
  3  4  1  0
  4  5  1  0
  5  6  1  0
  6  7  1  0
  7  8  1  0
  8  9  1  0
  9 10  1  0
 10 11  2  0
  6 12  1  0
 12 13  1  0
 13 14  1  0
 14 15  2  0
 15 16  1  0
 16 17  2  0
 17 18  1  0
 18 19  2  0
 18 20  1  0
  7  2  1  0
 10  2  1  0
 15  5  1  0
 19 14  1  0
M  END
>  <CASRN>  (4) 
53-16-7

>  <Name>  (4) 
Estrone

>  <Active>  (4) 
9

>  <Inactive>  (4) 
0

>  <Bioactivity>  (4) 
Active

>  <Min LEL>  (4) 
2.0

>  <Max HDT>  (4) 
nan

>  <Class>  (4) 
1

>  <Code>  (4) 
C53167

>  <NVS_NR_hER>  (4) 
1.0

>  <NVS_NR_cAR>  (4) 
1.0

>  <NVS_NR_hAR>  (4) 
1.0

>  <NVS_NR_hGR>  (4) 
0.0

>  <NVS_NR_hPR>  (4) 
1.0

>  <NVS_NR_rAR>  (4) 
0.0

>  <OT_ER_ERaERb_1440>  (4) 
1.0

>  <OT_FXR_FXRSRC1_0480>  (4) 
0.0

>  <OT_PPARg_PPARgSRC1_1440>  (4) 
0.0

>  <OT_FXR_FXRSRC1_1440>  (4) 
1.0

>  <OT_NURR1_NURR1RXRa_0480>  (4) 
0.0

>  <OT_NURR1_NURR1RXRa_1440>  (4) 
1.0

>  <OT_PPARg_PPARgSRC1_0480>  (4) 
0.0

>  <OT_AR_ARELUC_AG_1440>  (4) 
1.0

>  <OT_ERa_EREGFP_0120>  (4) 
1.0

>  <BSK_3C_HLADR_down>  (4) 
1.0

>  <BSK_3C_Vis_down>  (4) 
0.0

>  <BSK_3C_uPAR_down>  (4) 
0.0

>  <ATG_CAR_TRANS_up>  (4) 
0.0

>  <ATG_E2F_CIS_dn>  (4) 
0.0

>  <ATG_EGR_CIS_up>  (4) 
0.0

>  <ATG_ERa_TRANS_dn>  (4) 
0.0

>  <ATG_ERa_TRANS_up>  (4) 
1.0

>  <ATG_FXR_TRANS_dn>  (4) 
0.0

>  <ATG_GLI_CIS_dn>  (4) 
0.0

>  <ATG_GRE_CIS_up>  (4) 
0.0

>  <ATG_LXRa_TRANS_dn>  (4) 
0.0

>  <ATG_LXRa_TRANS_up>  (4) 
0.0

>  <ATG_NRF1_CIS_up>  (4) 
0.0

>  <ATG_NURR1_TRANS_up>  (4) 
0.0

>  <ATG_Sox_CIS_dn>  (4) 
0.0

>  <ATG_Sox_CIS_up>  (4) 
0.0

>  <ATG_Sp1_CIS_up>  (4) 
0.0

>  <ATG_TGFb_CIS_up>  (4) 
0.0

>  <TOX21_ARE_BLA_agonist_ratio>  (4) 
0.0

>  <TOX21_RAR_LUC_Antagonist>  (4) 
0.0

>  <ATG_LXRb_TRANS_dn>  (4) 
0.0

>  <ATG_CAR_TRANS_dn>  (4) 
0.0

>  <ATG_BRE_CIS_dn>  (4) 
0.0

>  <ATG_E2F_CIS_up>  (4) 
0.0

>  <TOX21_TSHR_Agonist_ratio>  (4) 
0.0

>  <ACEA_ER_80hr>  (4) 
1.0

>  <TOX21_CAR_Agonist_viabillity>  (4) 
0.0

>  <TOX21_PR_BLA_Agonist_viability>  (4) 
0.0

>  <TOX21_RT_HEPG2_FLO_40hr_ctrl_viability>  (4) 
1.0

>  <TOX21_AhR_LUC_Agonist_viability>  (4) 
0.0

>  <TOX21_ERR_viability>  (4) 
0.0

>  <TOX21_p53_BLA_p3_viability>  (4) 
0.0

>  <NVS_NR_bER>  (4) 
1.0

>  <ACEA_AR_agonist_80hr>  (4) 
1.0

>  <ACEA_AR_agonist_AUC_viability>  (4) 
0.0

>  <ACEA_AR_antagonist_80hr>  (4) 
0.0

>  <ACEA_AR_antagonist_AUC_viability>  (4) 
1.0

>  <ACEA_ER_AUC_viability>  (4) 
0.0

>  <APR_HepG2_CellCycleArrest_24h_dn>  (4) 
0.0

>  <APR_HepG2_CellCycleArrest_24h_up>  (4) 
0.0

>  <APR_HepG2_CellCycleArrest_72h_dn>  (4) 
0.0

>  <APR_HepG2_CellCycleArrest_72h_up>  (4) 
0.0

>  <APR_HepG2_CellLoss_24h_dn>  (4) 
0.0

>  <APR_HepG2_CellLoss_24h_up>  (4) 
0.0

>  <APR_HepG2_CellLoss_72h_dn>  (4) 
0.0

>  <APR_HepG2_CellLoss_72h_up>  (4) 
0.0

>  <APR_HepG2_MicrotubuleCSK_24h_dn>  (4) 
0.0

>  <APR_HepG2_MicrotubuleCSK_24h_up>  (4) 
0.0

>  <APR_HepG2_MicrotubuleCSK_72h_dn>  (4) 
0.0

>  <APR_HepG2_MicrotubuleCSK_72h_up>  (4) 
0.0

>  <APR_HepG2_MitoMass_24h_dn>  (4) 
1.0

>  <APR_HepG2_MitoMass_24h_up>  (4) 
0.0

>  <APR_HepG2_MitoMass_72h_dn>  (4) 
0.0

>  <APR_HepG2_MitoMass_72h_up>  (4) 
0.0

>  <APR_HepG2_MitoMembPot_24h_dn>  (4) 
0.0

>  <APR_HepG2_MitoMembPot_24h_up>  (4) 
0.0

>  <APR_HepG2_MitoMembPot_72h_dn>  (4) 
0.0

>  <APR_HepG2_MitoMembPot_72h_up>  (4) 
0.0

>  <APR_HepG2_MitoticArrest_24h_dn>  (4) 
0.0

>  <APR_HepG2_MitoticArrest_24h_up>  (4) 
0.0

>  <APR_HepG2_MitoticArrest_72h_dn>  (4) 
0.0

>  <APR_HepG2_MitoticArrest_72h_up>  (4) 
0.0

>  <APR_HepG2_NuclearSize_24h_dn>  (4) 
0.0

>  <APR_HepG2_NuclearSize_24h_up>  (4) 
0.0

>  <APR_HepG2_NuclearSize_72h_dn>  (4) 
0.0

>  <APR_HepG2_NuclearSize_72h_up>  (4) 
0.0

>  <APR_HepG2_OxidativeStress_24h_dn>  (4) 
0.0

>  <APR_HepG2_OxidativeStress_24h_up>  (4) 
0.0

>  <APR_HepG2_OxidativeStress_72h_dn>  (4) 
0.0

>  <APR_HepG2_OxidativeStress_72h_up>  (4) 
0.0

>  <APR_HepG2_StressKinase_24h_dn>  (4) 
0.0

>  <APR_HepG2_StressKinase_24h_up>  (4) 
0.0

>  <APR_HepG2_StressKinase_72h_dn>  (4) 
0.0

>  <APR_HepG2_StressKinase_72h_up>  (4) 
0.0

>  <APR_HepG2_p53Act_24h_dn>  (4) 
0.0

>  <APR_HepG2_p53Act_24h_up>  (4) 
0.0

>  <APR_HepG2_p53Act_72h_dn>  (4) 
0.0

>  <APR_HepG2_p53Act_72h_up>  (4) 
0.0

>  <ATG_AP_1_CIS_dn>  (4) 
0.0

>  <ATG_AP_1_CIS_up>  (4) 
0.0

>  <ATG_AP_2_CIS_dn>  (4) 
0.0

>  <ATG_AP_2_CIS_up>  (4) 
0.0

>  <ATG_AR_TRANS_dn>  (4) 
0.0

>  <ATG_AR_TRANS_up>  (4) 
0.0

>  <ATG_Ahr_CIS_dn>  (4) 
0.0

>  <ATG_Ahr_CIS_up>  (4) 
0.0

>  <ATG_BRE_CIS_up>  (4) 
0.0

>  <ATG_CMV_CIS_dn>  (4) 
0.0

>  <ATG_CMV_CIS_up>  (4) 
0.0

>  <ATG_CRE_CIS_dn>  (4) 
0.0

>  <ATG_CRE_CIS_up>  (4) 
0.0

>  <ATG_C_EBP_CIS_dn>  (4) 
0.0

>  <ATG_C_EBP_CIS_up>  (4) 
0.0

>  <ATG_DR4_LXR_CIS_dn>  (4) 
0.0

>  <ATG_DR4_LXR_CIS_up>  (4) 
0.0

>  <ATG_DR5_CIS_dn>  (4) 
0.0

>  <ATG_DR5_CIS_up>  (4) 
0.0

>  <ATG_EGR_CIS_dn>  (4) 
0.0

>  <ATG_ERE_CIS_dn>  (4) 
0.0

>  <ATG_ERE_CIS_up>  (4) 
1.0

>  <ATG_ERRa_TRANS_dn>  (4) 
0.0

>  <ATG_ERRa_TRANS_up>  (4) 
0.0

>  <ATG_ERRg_TRANS_dn>  (4) 
0.0

>  <ATG_ERRg_TRANS_up>  (4) 
0.0

>  <ATG_E_Box_CIS_dn>  (4) 
0.0

>  <ATG_E_Box_CIS_up>  (4) 
0.0

>  <ATG_Ets_CIS_dn>  (4) 
0.0

>  <ATG_Ets_CIS_up>  (4) 
0.0

>  <ATG_FXR_TRANS_up>  (4) 
0.0

>  <ATG_FoxA2_CIS_dn>  (4) 
0.0

>  <ATG_FoxA2_CIS_up>  (4) 
0.0

>  <ATG_FoxO_CIS_dn>  (4) 
0.0

>  <ATG_FoxO_CIS_up>  (4) 
0.0

>  <ATG_GAL4_TRANS_dn>  (4) 
0.0

>  <ATG_GAL4_TRANS_up>  (4) 
0.0

>  <ATG_GATA_CIS_dn>  (4) 
0.0

>  <ATG_GATA_CIS_up>  (4) 
0.0

>  <ATG_GLI_CIS_up>  (4) 
0.0

>  <ATG_GRE_CIS_dn>  (4) 
0.0

>  <ATG_GR_TRANS_dn>  (4) 
0.0

>  <ATG_GR_TRANS_up>  (4) 
0.0

>  <ATG_HIF1a_CIS_dn>  (4) 
0.0

>  <ATG_HIF1a_CIS_up>  (4) 
0.0

>  <ATG_HNF4a_TRANS_dn>  (4) 
0.0

>  <ATG_HNF4a_TRANS_up>  (4) 
0.0

>  <ATG_HNF6_CIS_dn>  (4) 
0.0

>  <ATG_HNF6_CIS_up>  (4) 
0.0

>  <ATG_HSE_CIS_dn>  (4) 
0.0

>  <ATG_HSE_CIS_up>  (4) 
0.0

>  <ATG_IR1_CIS_dn>  (4) 
0.0

>  <ATG_IR1_CIS_up>  (4) 
0.0

>  <ATG_ISRE_CIS_dn>  (4) 
0.0

>  <ATG_ISRE_CIS_up>  (4) 
0.0

>  <ATG_LXRb_TRANS_up>  (4) 
0.0

>  <ATG_MRE_CIS_dn>  (4) 
0.0

>  <ATG_MRE_CIS_up>  (4) 
0.0

>  <ATG_M_06_CIS_dn>  (4) 
0.0

>  <ATG_M_06_CIS_up>  (4) 
0.0

>  <ATG_M_06_TRANS_dn>  (4) 
0.0

>  <ATG_M_06_TRANS_up>  (4) 
0.0

>  <ATG_M_19_CIS_dn>  (4) 
0.0

>  <ATG_M_19_CIS_up>  (4) 
0.0

>  <ATG_M_19_TRANS_dn>  (4) 
0.0

>  <ATG_M_19_TRANS_up>  (4) 
0.0

>  <ATG_M_32_CIS_dn>  (4) 
0.0

>  <ATG_M_32_CIS_up>  (4) 
0.0

>  <ATG_M_32_TRANS_dn>  (4) 
0.0

>  <ATG_M_32_TRANS_up>  (4) 
0.0

>  <ATG_M_61_CIS_dn>  (4) 
0.0

>  <ATG_M_61_CIS_up>  (4) 
0.0

>  <ATG_M_61_TRANS_dn>  (4) 
0.0

>  <ATG_M_61_TRANS_up>  (4) 
0.0

>  <ATG_Myb_CIS_dn>  (4) 
0.0

>  <ATG_Myb_CIS_up>  (4) 
0.0

>  <ATG_Myc_CIS_dn>  (4) 
0.0

>  <ATG_Myc_CIS_up>  (4) 
0.0

>  <ATG_NFI_CIS_dn>  (4) 
0.0

>  <ATG_NFI_CIS_up>  (4) 
0.0

>  <ATG_NF_kB_CIS_dn>  (4) 
0.0

>  <ATG_NF_kB_CIS_up>  (4) 
0.0

>  <ATG_NRF1_CIS_dn>  (4) 
0.0

>  <ATG_NRF2_ARE_CIS_dn>  (4) 
0.0

>  <ATG_NRF2_ARE_CIS_up>  (4) 
0.0

>  <ATG_NURR1_TRANS_dn>  (4) 
0.0

>  <ATG_Oct_MLP_CIS_dn>  (4) 
0.0

>  <ATG_Oct_MLP_CIS_up>  (4) 
0.0

>  <ATG_PBREM_CIS_dn>  (4) 
0.0

>  <ATG_PBREM_CIS_up>  (4) 
0.0

>  <ATG_PPARa_TRANS_dn>  (4) 
0.0

>  <ATG_PPARa_TRANS_up>  (4) 
0.0

>  <ATG_PPARd_TRANS_dn>  (4) 
0.0

>  <ATG_PPARd_TRANS_up>  (4) 
0.0

>  <ATG_PPARg_TRANS_dn>  (4) 
0.0

>  <ATG_PPARg_TRANS_up>  (4) 
0.0

>  <ATG_PPRE_CIS_dn>  (4) 
0.0

>  <ATG_PPRE_CIS_up>  (4) 
0.0

>  <ATG_PXRE_CIS_dn>  (4) 
0.0

>  <ATG_PXRE_CIS_up>  (4) 
1.0

>  <ATG_PXR_TRANS_dn>  (4) 
0.0

>  <ATG_PXR_TRANS_up>  (4) 
1.0

>  <ATG_Pax6_CIS_dn>  (4) 
0.0

>  <ATG_Pax6_CIS_up>  (4) 
0.0

>  <ATG_RARa_TRANS_dn>  (4) 
0.0

>  <ATG_RARa_TRANS_up>  (4) 
0.0

>  <ATG_RARb_TRANS_dn>  (4) 
0.0

>  <ATG_RARb_TRANS_up>  (4) 
0.0

>  <ATG_RARg_TRANS_dn>  (4) 
0.0

>  <ATG_RARg_TRANS_up>  (4) 
0.0

>  <ATG_RORE_CIS_dn>  (4) 
0.0

>  <ATG_RORE_CIS_up>  (4) 
0.0

>  <ATG_RORb_TRANS_dn>  (4) 
0.0

>  <ATG_RORb_TRANS_up>  (4) 
0.0

>  <ATG_RORg_TRANS_dn>  (4) 
0.0

>  <ATG_RORg_TRANS_up>  (4) 
0.0

>  <ATG_RXRa_TRANS_dn>  (4) 
0.0

>  <ATG_RXRa_TRANS_up>  (4) 
0.0

>  <ATG_RXRb_TRANS_dn>  (4) 
0.0

>  <ATG_RXRb_TRANS_up>  (4) 
0.0

>  <ATG_SREBP_CIS_dn>  (4) 
0.0

>  <ATG_SREBP_CIS_up>  (4) 
0.0

>  <ATG_STAT3_CIS_dn>  (4) 
0.0

>  <ATG_STAT3_CIS_up>  (4) 
0.0

>  <ATG_Sp1_CIS_dn>  (4) 
0.0

>  <ATG_TAL_CIS_dn>  (4) 
0.0

>  <ATG_TAL_CIS_up>  (4) 
0.0

>  <ATG_TA_CIS_dn>  (4) 
0.0

>  <ATG_TA_CIS_up>  (4) 
0.0

>  <ATG_TCF_b_cat_CIS_dn>  (4) 
0.0

>  <ATG_TCF_b_cat_CIS_up>  (4) 
0.0

>  <ATG_TGFb_CIS_dn>  (4) 
0.0

>  <ATG_THRa1_TRANS_dn>  (4) 
0.0

>  <ATG_THRa1_TRANS_up>  (4) 
0.0

>  <ATG_VDRE_CIS_dn>  (4) 
0.0

>  <ATG_VDRE_CIS_up>  (4) 
0.0

>  <ATG_VDR_TRANS_dn>  (4) 
0.0

>  <ATG_VDR_TRANS_up>  (4) 
0.0

>  <ATG_XTT_Cytotoxicity_up>  (4) 
0.0

>  <ATG_Xbp1_CIS_dn>  (4) 
0.0

>  <ATG_Xbp1_CIS_up>  (4) 
0.0

>  <ATG_p53_CIS_dn>  (4) 
0.0

>  <ATG_p53_CIS_up>  (4) 
0.0

>  <BSK_3C_Eselectin_down>  (4) 
0.0

>  <BSK_3C_Eselectin_up>  (4) 
0.0

>  <BSK_3C_HLADR_up>  (4) 
0.0

>  <BSK_3C_ICAM1_down>  (4) 
0.0

>  <BSK_3C_ICAM1_up>  (4) 
0.0

>  <BSK_3C_IL8_down>  (4) 
0.0

>  <BSK_3C_IL8_up>  (4) 
0.0

>  <BSK_3C_MCP1_down>  (4) 
0.0

>  <BSK_3C_MCP1_up>  (4) 
0.0

>  <BSK_3C_MIG_down>  (4) 
0.0

>  <BSK_3C_MIG_up>  (4) 
0.0

>  <BSK_3C_Proliferation_down>  (4) 
1.0

>  <BSK_3C_Proliferation_up>  (4) 
0.0

>  <BSK_3C_SRB_down>  (4) 
0.0

>  <BSK_3C_SRB_up>  (4) 
0.0

>  <BSK_3C_Thrombomodulin_down>  (4) 
0.0

>  <BSK_3C_Thrombomodulin_up>  (4) 
0.0

>  <BSK_3C_TissueFactor_down>  (4) 
0.0

>  <BSK_3C_TissueFactor_up>  (4) 
0.0

>  <BSK_3C_VCAM1_down>  (4) 
0.0

>  <BSK_3C_VCAM1_up>  (4) 
0.0

>  <BSK_3C_Vis_up>  (4) 
0.0

>  <BSK_3C_uPAR_up>  (4) 
0.0

>  <BSK_4H_Eotaxin3_down>  (4) 
0.0

>  <BSK_4H_Eotaxin3_up>  (4) 
0.0

>  <BSK_4H_MCP1_down>  (4) 
0.0

>  <BSK_4H_MCP1_up>  (4) 
0.0

>  <BSK_4H_Pselectin_down>  (4) 
0.0

>  <BSK_4H_Pselectin_up>  (4) 
0.0

>  <BSK_4H_SRB_down>  (4) 
0.0

>  <BSK_4H_SRB_up>  (4) 
0.0

>  <BSK_4H_VCAM1_down>  (4) 
0.0

>  <BSK_4H_VCAM1_up>  (4) 
0.0

>  <BSK_4H_VEGFRII_down>  (4) 
0.0

>  <BSK_4H_VEGFRII_up>  (4) 
0.0

>  <BSK_4H_uPAR_down>  (4) 
0.0

>  <BSK_4H_uPAR_up>  (4) 
0.0

>  <BSK_BE3C_HLADR_down>  (4) 
0.0

>  <BSK_BE3C_HLADR_up>  (4) 
0.0

>  <BSK_BE3C_IL1a_down>  (4) 
0.0

>  <BSK_BE3C_IL1a_up>  (4) 
0.0

>  <BSK_BE3C_IP10_down>  (4) 
0.0

>  <BSK_BE3C_IP10_up>  (4) 
0.0

>  <BSK_BE3C_MIG_down>  (4) 
0.0

>  <BSK_BE3C_MIG_up>  (4) 
0.0

>  <BSK_BE3C_MMP1_down>  (4) 
0.0

>  <BSK_BE3C_MMP1_up>  (4) 
1.0

>  <BSK_BE3C_PAI1_down>  (4) 
0.0

>  <BSK_BE3C_PAI1_up>  (4) 
0.0

>  <BSK_BE3C_SRB_down>  (4) 
0.0

>  <BSK_BE3C_SRB_up>  (4) 
0.0

>  <BSK_BE3C_TGFb1_down>  (4) 
0.0

>  <BSK_BE3C_TGFb1_up>  (4) 
0.0

>  <BSK_BE3C_tPA_down>  (4) 
0.0

>  <BSK_BE3C_tPA_up>  (4) 
0.0

>  <BSK_BE3C_uPAR_down>  (4) 
0.0

>  <BSK_BE3C_uPAR_up>  (4) 
0.0

>  <BSK_BE3C_uPA_down>  (4) 
0.0

>  <BSK_BE3C_uPA_up>  (4) 
0.0

>  <BSK_CASM3C_HLADR_down>  (4) 
0.0

>  <BSK_CASM3C_HLADR_up>  (4) 
0.0

>  <BSK_CASM3C_IL6_down>  (4) 
0.0

>  <BSK_CASM3C_IL6_up>  (4) 
0.0

>  <BSK_CASM3C_IL8_down>  (4) 
0.0

>  <BSK_CASM3C_IL8_up>  (4) 
0.0

>  <BSK_CASM3C_LDLR_down>  (4) 
0.0

>  <BSK_CASM3C_LDLR_up>  (4) 
0.0

>  <BSK_CASM3C_MCP1_down>  (4) 
0.0

>  <BSK_CASM3C_MCP1_up>  (4) 
0.0

>  <BSK_CASM3C_MCSF_down>  (4) 
0.0

>  <BSK_CASM3C_MCSF_up>  (4) 
0.0

>  <BSK_CASM3C_MIG_down>  (4) 
0.0

>  <BSK_CASM3C_MIG_up>  (4) 
0.0

>  <BSK_CASM3C_Proliferation_down>  (4) 
0.0

>  <BSK_CASM3C_Proliferation_up>  (4) 
0.0

>  <BSK_CASM3C_SAA_down>  (4) 
0.0

>  <BSK_CASM3C_SAA_up>  (4) 
0.0

>  <BSK_CASM3C_SRB_down>  (4) 
0.0

>  <BSK_CASM3C_SRB_up>  (4) 
0.0

>  <BSK_CASM3C_Thrombomodulin_down>  (4) 
0.0

>  <BSK_CASM3C_Thrombomodulin_up>  (4) 
0.0

>  <BSK_CASM3C_TissueFactor_down>  (4) 
0.0

>  <BSK_CASM3C_TissueFactor_up>  (4) 
0.0

>  <BSK_CASM3C_VCAM1_down>  (4) 
0.0

>  <BSK_CASM3C_VCAM1_up>  (4) 
0.0

>  <BSK_CASM3C_uPAR_down>  (4) 
0.0

>  <BSK_CASM3C_uPAR_up>  (4) 
0.0

>  <BSK_KF3CT_ICAM1_down>  (4) 
0.0

>  <BSK_KF3CT_ICAM1_up>  (4) 
0.0

>  <BSK_KF3CT_IL1a_down>  (4) 
0.0

>  <BSK_KF3CT_IL1a_up>  (4) 
0.0

>  <BSK_KF3CT_IP10_down>  (4) 
0.0

>  <BSK_KF3CT_IP10_up>  (4) 
0.0

>  <BSK_KF3CT_MCP1_down>  (4) 
0.0

>  <BSK_KF3CT_MCP1_up>  (4) 
0.0

>  <BSK_KF3CT_MMP9_down>  (4) 
0.0

>  <BSK_KF3CT_MMP9_up>  (4) 
0.0

>  <BSK_KF3CT_SRB_down>  (4) 
0.0

>  <BSK_KF3CT_SRB_up>  (4) 
0.0

>  <BSK_KF3CT_TGFb1_down>  (4) 
0.0

>  <BSK_KF3CT_TGFb1_up>  (4) 
0.0

>  <BSK_KF3CT_TIMP2_down>  (4) 
0.0

>  <BSK_KF3CT_TIMP2_up>  (4) 
0.0

>  <BSK_KF3CT_uPA_down>  (4) 
0.0

>  <BSK_KF3CT_uPA_up>  (4) 
0.0

>  <BSK_LPS_CD40_down>  (4) 
0.0

>  <BSK_LPS_CD40_up>  (4) 
0.0

>  <BSK_LPS_Eselectin_down>  (4) 
0.0

>  <BSK_LPS_Eselectin_up>  (4) 
1.0

>  <BSK_LPS_IL1a_down>  (4) 
0.0

>  <BSK_LPS_IL1a_up>  (4) 
0.0

>  <BSK_LPS_IL8_down>  (4) 
0.0

>  <BSK_LPS_IL8_up>  (4) 
0.0

>  <BSK_LPS_MCP1_down>  (4) 
0.0

>  <BSK_LPS_MCP1_up>  (4) 
0.0

>  <BSK_LPS_MCSF_down>  (4) 
0.0

>  <BSK_LPS_MCSF_up>  (4) 
0.0

>  <BSK_LPS_PGE2_down>  (4) 
0.0

>  <BSK_LPS_PGE2_up>  (4) 
0.0

>  <BSK_LPS_SRB_down>  (4) 
0.0

>  <BSK_LPS_SRB_up>  (4) 
0.0

>  <BSK_LPS_TNFa_down>  (4) 
0.0

>  <BSK_LPS_TNFa_up>  (4) 
0.0

>  <BSK_LPS_TissueFactor_down>  (4) 
0.0

>  <BSK_LPS_TissueFactor_up>  (4) 
0.0

>  <BSK_LPS_VCAM1_down>  (4) 
0.0

>  <BSK_LPS_VCAM1_up>  (4) 
0.0

>  <BSK_SAg_CD38_down>  (4) 
0.0

>  <BSK_SAg_CD38_up>  (4) 
0.0

>  <BSK_SAg_CD40_down>  (4) 
0.0

>  <BSK_SAg_CD40_up>  (4) 
0.0

>  <BSK_SAg_CD69_down>  (4) 
0.0

>  <BSK_SAg_CD69_up>  (4) 
0.0

>  <BSK_SAg_Eselectin_down>  (4) 
0.0

>  <BSK_SAg_Eselectin_up>  (4) 
0.0

>  <BSK_SAg_IL8_down>  (4) 
0.0

>  <BSK_SAg_IL8_up>  (4) 
0.0

>  <BSK_SAg_MCP1_down>  (4) 
0.0

>  <BSK_SAg_MCP1_up>  (4) 
0.0

>  <BSK_SAg_MIG_down>  (4) 
0.0

>  <BSK_SAg_MIG_up>  (4) 
0.0

>  <BSK_SAg_PBMCCytotoxicity_down>  (4) 
0.0

>  <BSK_SAg_PBMCCytotoxicity_up>  (4) 
0.0

>  <BSK_SAg_Proliferation_down>  (4) 
0.0

>  <BSK_SAg_Proliferation_up>  (4) 
0.0

>  <BSK_SAg_SRB_down>  (4) 
0.0

>  <BSK_SAg_SRB_up>  (4) 
0.0

>  <BSK_hDFCGF_CollagenIII_down>  (4) 
0.0

>  <BSK_hDFCGF_CollagenIII_up>  (4) 
0.0

>  <BSK_hDFCGF_EGFR_down>  (4) 
0.0

>  <BSK_hDFCGF_EGFR_up>  (4) 
1.0

>  <BSK_hDFCGF_IL8_down>  (4) 
0.0

>  <BSK_hDFCGF_IL8_up>  (4) 
0.0

>  <BSK_hDFCGF_IP10_down>  (4) 
1.0

>  <BSK_hDFCGF_IP10_up>  (4) 
0.0

>  <BSK_hDFCGF_MCSF_down>  (4) 
0.0

>  <BSK_hDFCGF_MCSF_up>  (4) 
0.0

>  <BSK_hDFCGF_MIG_down>  (4) 
0.0

>  <BSK_hDFCGF_MIG_up>  (4) 
0.0

>  <BSK_hDFCGF_MMP1_down>  (4) 
0.0

>  <BSK_hDFCGF_MMP1_up>  (4) 
0.0

>  <BSK_hDFCGF_PAI1_down>  (4) 
0.0

>  <BSK_hDFCGF_PAI1_up>  (4) 
0.0

>  <BSK_hDFCGF_Proliferation_down>  (4) 
1.0

>  <BSK_hDFCGF_Proliferation_up>  (4) 
0.0

>  <BSK_hDFCGF_SRB_down>  (4) 
0.0

>  <BSK_hDFCGF_SRB_up>  (4) 
0.0

>  <BSK_hDFCGF_TIMP1_down>  (4) 
0.0

>  <BSK_hDFCGF_TIMP1_up>  (4) 
0.0

>  <BSK_hDFCGF_VCAM1_down>  (4) 
0.0

>  <BSK_hDFCGF_VCAM1_up>  (4) 
0.0

>  <CEETOX_H295R_11DCORT_dn>  (4) 
1.0

>  <CEETOX_H295R_11DCORT_up>  (4) 
0.0

>  <CEETOX_H295R_ANDR_dn>  (4) 
1.0

>  <CEETOX_H295R_ANDR_up>  (4) 
0.0

>  <CEETOX_H295R_CORTIC_dn>  (4) 
1.0

>  <CEETOX_H295R_CORTIC_up>  (4) 
0.0

>  <CEETOX_H295R_CORTISOL_dn>  (4) 
1.0

>  <CEETOX_H295R_CORTISOL_up>  (4) 
0.0

>  <CEETOX_H295R_DOC_dn>  (4) 
1.0

>  <CEETOX_H295R_DOC_up>  (4) 
0.0

>  <CEETOX_H295R_ESTRADIOL_dn>  (4) 
0.0

>  <CEETOX_H295R_ESTRADIOL_up>  (4) 
1.0

>  <CEETOX_H295R_ESTRONE_dn>  (4) 
0.0

>  <CEETOX_H295R_ESTRONE_up>  (4) 
1.0

>  <CEETOX_H295R_MTT_cell_viability_dn>  (4) 
0.0

>  <CEETOX_H295R_MTT_cell_viability_up>  (4) 
0.0

>  <CEETOX_H295R_OHPREG_dn>  (4) 
0.0

>  <CEETOX_H295R_OHPREG_up>  (4) 
1.0

>  <CEETOX_H295R_OHPROG_dn>  (4) 
1.0

>  <CEETOX_H295R_OHPROG_up>  (4) 
0.0

>  <CEETOX_H295R_PROG_dn>  (4) 
1.0

>  <CEETOX_H295R_PROG_up>  (4) 
0.0

>  <CEETOX_H295R_TESTO_dn>  (4) 
1.0

>  <CEETOX_H295R_TESTO_up>  (4) 
0.0

>  <NHEERL_ZF_144hpf_TERATOSCORE_up>  (4) 
0.0

>  <NVS_ENZ_rMAOAP>  (4) 
0.0

>  <NVS_ENZ_rMAOAP_Activator>  (4) 
0.0

>  <NVS_GPCR_g5HT4>  (4) 
0.0

>  <NVS_GPCR_hOpiate_D1>  (4) 
0.0

>  <NVS_GPCR_rCRF>  (4) 
0.0

>  <NVS_GPCR_rOpiate_NonSelectiveNa>  (4) 
1.0

>  <NVS_GPCR_rTRH>  (4) 
0.0

>  <NVS_NR_bPR>  (4) 
1.0

>  <NVS_NR_hPPARa>  (4) 
0.0

>  <NVS_NR_hPXR>  (4) 
0.0

>  <NVS_NR_rMR>  (4) 
0.0

>  <NVS_TR_rSERT>  (4) 
1.0

>  <OT_AR_ARSRC1_0480>  (4) 
1.0

>  <OT_AR_ARSRC1_0960>  (4) 
1.0

>  <OT_ER_ERaERa_0480>  (4) 
1.0

>  <OT_ER_ERaERa_1440>  (4) 
1.0

>  <OT_ER_ERaERb_0480>  (4) 
1.0

>  <OT_ER_ERbERb_0480>  (4) 
1.0

>  <OT_ER_ERbERb_1440>  (4) 
1.0

>  <OT_ERa_EREGFP_0480>  (4) 
1.0

>  <TOX21_AP1_BLA_Agonist_ch1>  (4) 
0.0

>  <TOX21_AP1_BLA_Agonist_ch2>  (4) 
0.0

>  <TOX21_AP1_BLA_Agonist_ratio>  (4) 
0.0

>  <TOX21_AP1_BLA_Agonist_viability>  (4) 
0.0

>  <TOX21_ARE_BLA_Agonist_ch1>  (4) 
0.0

>  <TOX21_ARE_BLA_Agonist_ch2>  (4) 
0.0

>  <TOX21_ARE_BLA_agonist_viability>  (4) 
0.0

>  <TOX21_AR_BLA_Agonist_ch1>  (4) 
0.0

>  <TOX21_AR_BLA_Agonist_ch2>  (4) 
1.0

>  <TOX21_AR_BLA_Agonist_ratio>  (4) 
0.0

>  <TOX21_AR_BLA_Antagonist_ch1>  (4) 
0.0

>  <TOX21_AR_BLA_Antagonist_ch2>  (4) 
1.0

>  <TOX21_AR_BLA_Antagonist_ratio>  (4) 
1.0

>  <TOX21_AR_BLA_Antagonist_viability>  (4) 
0.0

>  <TOX21_AR_LUC_MDAKB2_Agonist>  (4) 
1.0

>  <TOX21_AR_LUC_MDAKB2_Agonist_3uM_Nilutamide>  (4) 
1.0

>  <TOX21_AR_LUC_MDAKB2_Agonist_3uM_Nilutamide_viability>  (4) 
0.0

>  <TOX21_AR_LUC_MDAKB2_Antagonist_0.5nM_R1881>  (4) 
1.0

>  <TOX21_AR_LUC_MDAKB2_Antagonist_0.5nM_R1881_viability>  (4) 
0.0

>  <TOX21_AR_LUC_MDAKB2_Antagonist_10nM_R1881>  (4) 
1.0

>  <TOX21_AR_LUC_MDAKB2_Antagonist_10nM_R1881_viability>  (4) 
0.0

>  <TOX21_AhR_LUC_Agonist>  (4) 
0.0

>  <TOX21_Aromatase_Inhibition>  (4) 
0.0

>  <TOX21_Aromatase_Inhibition_viability>  (4) 
0.0

>  <TOX21_AutoFluor_HEK293_Cell_blue>  (4) 
0.0

>  <TOX21_AutoFluor_HEK293_Cell_green>  (4) 
0.0

>  <TOX21_AutoFluor_HEK293_Cell_red>  (4) 
0.0

>  <TOX21_AutoFluor_HEK293_Media_blue>  (4) 
0.0

>  <TOX21_AutoFluor_HEK293_Media_green>  (4) 
0.0

>  <TOX21_AutoFluor_HEK293_Media_red>  (4) 
0.0

>  <TOX21_AutoFluor_HEPG2_Cell_blue>  (4) 
0.0

>  <TOX21_AutoFluor_HEPG2_Cell_green>  (4) 
0.0

>  <TOX21_AutoFluor_HEPG2_Cell_red>  (4) 
0.0

>  <TOX21_AutoFluor_HEPG2_Media_blue>  (4) 
0.0

>  <TOX21_AutoFluor_HEPG2_Media_green>  (4) 
0.0

>  <TOX21_AutoFluor_HEPG2_Media_red>  (4) 
0.0

>  <TOX21_CAR_Agonist>  (4) 
1.0

>  <TOX21_CAR_Antagonist>  (4) 
0.0

>  <TOX21_CAR_Antagonist_viability>  (4) 
0.0

>  <TOX21_CASP3_CHO>  (4) 
0.0

>  <TOX21_CASP3_CHO_viability>  (4) 
0.0

>  <TOX21_CASP3_HEPG2>  (4) 
0.0

>  <TOX21_CASP3_HEPG2_viability>  (4) 
0.0

>  <TOX21_DT40>  (4) 
1.0

>  <TOX21_DT40_100>  (4) 
1.0

>  <TOX21_DT40_657>  (4) 
1.0

>  <TOX21_ELG1_LUC_Agonist>  (4) 
0.0

>  <TOX21_ELG1_LUC_Agonist_viability>  (4) 
0.0

>  <TOX21_ERR_Agonist>  (4) 
0.0

>  <TOX21_ERR_Antagonist>  (4) 
1.0

>  <TOX21_ERa_BLA_Agonist_ch1>  (4) 
1.0

>  <TOX21_ERa_BLA_Agonist_ch2>  (4) 
1.0

>  <TOX21_ERa_BLA_Agonist_ratio>  (4) 
1.0

>  <TOX21_ERa_BLA_Antagonist_ch1>  (4) 
0.0

>  <TOX21_ERa_BLA_Antagonist_ch2>  (4) 
0.0

>  <TOX21_ERa_BLA_Antagonist_ratio>  (4) 
0.0

>  <TOX21_ERa_BLA_Antagonist_viability>  (4) 
0.0

>  <TOX21_ERa_LUC_VM7_Agonist>  (4) 
1.0

>  <TOX21_ERa_LUC_VM7_Agonist_10nM_ICI182780>  (4) 
1.0

>  <TOX21_ERa_LUC_VM7_Agonist_10nM_ICI182780_viability>  (4) 
0.0

>  <TOX21_ERa_LUC_VM7_Antagonist_0.1nM_E2>  (4) 
0.0

>  <TOX21_ERa_LUC_VM7_Antagonist_0.1nM_E2_viability>  (4) 
0.0

>  <TOX21_ERa_LUC_VM7_Antagonist_0.5nM_E2>  (4) 
0.0

>  <TOX21_ERa_LUC_VM7_Antagonist_0.5nM_E2_viability>  (4) 
0.0

>  <TOX21_ERb_BLA_Agonist_ch1>  (4) 
0.0

>  <TOX21_ERb_BLA_Agonist_ch2>  (4) 
1.0

>  <TOX21_ERb_BLA_Agonist_ratio>  (4) 
1.0

>  <TOX21_ERb_BLA_Agonist_viability>  (4) 
0.0

>  <TOX21_ERb_BLA_Antagonist_ch1>  (4) 
0.0

>  <TOX21_ERb_BLA_Antagonist_ch2>  (4) 
0.0

>  <TOX21_ERb_BLA_Antagonist_ratio>  (4) 
0.0

>  <TOX21_ERb_BLA_Antagonist_viability>  (4) 
0.0

>  <TOX21_ESRE_BLA_ch1>  (4) 
0.0

>  <TOX21_ESRE_BLA_ch2>  (4) 
0.0

>  <TOX21_ESRE_BLA_ratio>  (4) 
0.0

>  <TOX21_ESRE_BLA_viability>  (4) 
0.0

>  <TOX21_FXR_BLA_Antagonist_ch1>  (4) 
0.0

>  <TOX21_FXR_BLA_Antagonist_ch2>  (4) 
0.0

>  <TOX21_FXR_BLA_agonist_ch1>  (4) 
0.0

>  <TOX21_FXR_BLA_agonist_ch2>  (4) 
0.0

>  <TOX21_FXR_BLA_agonist_ratio>  (4) 
0.0

>  <TOX21_FXR_BLA_agonist_viability>  (4) 
0.0

>  <TOX21_FXR_BLA_antagonist_ratio>  (4) 
1.0

>  <TOX21_FXR_BLA_antagonist_viability>  (4) 
0.0

>  <TOX21_GR_BLA_Agonist_ch1>  (4) 
0.0

>  <TOX21_GR_BLA_Agonist_ch2>  (4) 
0.0

>  <TOX21_GR_BLA_Agonist_ratio>  (4) 
0.0

>  <TOX21_GR_BLA_Antagonist_ch1>  (4) 
0.0

>  <TOX21_GR_BLA_Antagonist_ch2>  (4) 
1.0

>  <TOX21_GR_BLA_Antagonist_ratio>  (4) 
1.0

>  <TOX21_GR_BLA_Antagonist_viability>  (4) 
0.0

>  <TOX21_H2AX_HTRF_CHO_Agonist_ch1>  (4) 
0.0

>  <TOX21_H2AX_HTRF_CHO_Agonist_ch2>  (4) 
0.0

>  <TOX21_H2AX_HTRF_CHO_Agonist_ratio>  (4) 
0.0

>  <TOX21_H2AX_HTRF_CHO_viability>  (4) 
0.0

>  <TOX21_HDAC_Inhibition>  (4) 
0.0

>  <TOX21_HDAC_Inhibition_viability>  (4) 
0.0

>  <TOX21_HRE_BLA_Agonist_ch1>  (4) 
0.0

>  <TOX21_HRE_BLA_Agonist_ch2>  (4) 
0.0

>  <TOX21_HRE_BLA_Agonist_ratio>  (4) 
0.0

>  <TOX21_HRE_BLA_Agonist_viability>  (4) 
0.0

>  <TOX21_HSE_BLA_agonist_ch1>  (4) 
0.0

>  <TOX21_HSE_BLA_agonist_ch2>  (4) 
0.0

>  <TOX21_HSE_BLA_agonist_ratio>  (4) 
0.0

>  <TOX21_HSE_BLA_agonist_viability>  (4) 
0.0

>  <TOX21_LUC_Biochem>  (4) 
0.0

>  <TOX21_MMP_fitc>  (4) 
0.0

>  <TOX21_MMP_ratio_down>  (4) 
1.0

>  <TOX21_MMP_ratio_up>  (4) 
0.0

>  <TOX21_MMP_rhodamine>  (4) 
0.0

>  <TOX21_MMP_viability>  (4) 
0.0

>  <TOX21_NFkB_BLA_agonist_ch1>  (4) 
0.0

>  <TOX21_NFkB_BLA_agonist_ch2>  (4) 
0.0

>  <TOX21_NFkB_BLA_agonist_ratio>  (4) 
0.0

>  <TOX21_NFkB_BLA_agonist_viability>  (4) 
0.0

>  <TOX21_PGC_ERR_Agonist>  (4) 
0.0

>  <TOX21_PGC_ERR_Antagonist>  (4) 
0.0

>  <TOX21_PGC_ERR_viability>  (4) 
0.0

>  <TOX21_PPARd_BLA_Agonist_viability>  (4) 
0.0

>  <TOX21_PPARd_BLA_Antagonist_ch1>  (4) 
0.0

>  <TOX21_PPARd_BLA_Antagonist_ch2>  (4) 
0.0

>  <TOX21_PPARd_BLA_agonist_ch1>  (4) 
0.0

>  <TOX21_PPARd_BLA_agonist_ch2>  (4) 
0.0

>  <TOX21_PPARd_BLA_agonist_ratio>  (4) 
0.0

>  <TOX21_PPARd_BLA_antagonist_ratio>  (4) 
0.0

>  <TOX21_PPARd_BLA_antagonist_viability>  (4) 
0.0

>  <TOX21_PPARg_BLA_Agonist_ch1>  (4) 
0.0

>  <TOX21_PPARg_BLA_Agonist_ch2>  (4) 
0.0

>  <TOX21_PPARg_BLA_Agonist_ratio>  (4) 
0.0

>  <TOX21_PPARg_BLA_Antagonist_ch1>  (4) 
0.0

>  <TOX21_PPARg_BLA_Antagonist_ch2>  (4) 
0.0

>  <TOX21_PPARg_BLA_antagonist_ratio>  (4) 
0.0

>  <TOX21_PPARg_BLA_antagonist_viability>  (4) 
0.0

>  <TOX21_PR_BLA_Agonist_ch1>  (4) 
0.0

>  <TOX21_PR_BLA_Agonist_ch2>  (4) 
0.0

>  <TOX21_PR_BLA_Agonist_ratio>  (4) 
0.0

>  <TOX21_PR_BLA_Antagonist_ch1>  (4) 
1.0

>  <TOX21_PR_BLA_Antagonist_ch2>  (4) 
1.0

>  <TOX21_PR_BLA_Antagonist_ratio>  (4) 
1.0

>  <TOX21_PR_BLA_Antagonist_viability>  (4) 
0.0

>  <TOX21_PR_BLA_Followup_Agonist_ch1>  (4) 
0.0

>  <TOX21_PR_BLA_Followup_Agonist_ch2>  (4) 
0.0

>  <TOX21_PR_BLA_Followup_Agonist_ratio>  (4) 
1.0

>  <TOX21_PR_BLA_Followup_Agonist_viability>  (4) 
0.0

>  <TOX21_PR_BLA_Followup_Antagonist_ch1>  (4) 
1.0

>  <TOX21_PR_BLA_Followup_Antagonist_ch2>  (4) 
0.0

>  <TOX21_PR_BLA_Followup_Antagonist_ratio>  (4) 
1.0

>  <TOX21_PR_BLA_Followup_Antagonist_viability>  (4) 
0.0

>  <TOX21_PR_LUC_Followup_Agonist>  (4) 
1.0

>  <TOX21_PR_LUC_Followup_Agonist_viability>  (4) 
0.0

>  <TOX21_PR_LUC_Followup_Antagonist>  (4) 
1.0

>  <TOX21_PR_LUC_Followup_Antagonist_viability>  (4) 
0.0

>  <TOX21_PXR_Agonist>  (4) 
0.0

>  <TOX21_PXR_viability>  (4) 
0.0

>  <TOX21_RAR_LUC_Agonist>  (4) 
0.0

>  <TOX21_RAR_LUC_Agonist_viability>  (4) 
0.0

>  <TOX21_RAR_LUC_Antagonist_viability>  (4) 
0.0

>  <TOX21_RORg_LUC_CHO_Antagonist>  (4) 
0.0

>  <TOX21_RORg_LUC_CHO_Antagonist_viability>  (4) 
0.0

>  <TOX21_RT_HEK293_FLO_00hr_viability>  (4) 
0.0

>  <TOX21_RT_HEK293_FLO_08hr_viability>  (4) 
0.0

>  <TOX21_RT_HEK293_FLO_16hr_viability>  (4) 
1.0

>  <TOX21_RT_HEK293_FLO_24hr_viability>  (4) 
1.0

>  <TOX21_RT_HEK293_FLO_32hr_viability>  (4) 
1.0

>  <TOX21_RT_HEK293_FLO_40hr_viability>  (4) 
1.0

>  <TOX21_RT_HEK293_GLO_00hr_viability>  (4) 
0.0

>  <TOX21_RT_HEK293_GLO_08hr_viability>  (4) 
0.0

>  <TOX21_RT_HEK293_GLO_16hr_viability>  (4) 
1.0

>  <TOX21_RT_HEK293_GLO_24hr_viability>  (4) 
1.0

>  <TOX21_RT_HEK293_GLO_32hr_viability>  (4) 
1.0

>  <TOX21_RT_HEK293_GLO_40hr_viability>  (4) 
1.0

>  <TOX21_RT_HEPG2_FLO_00hr_ctrl_viability>  (4) 
0.0

>  <TOX21_RT_HEPG2_FLO_08hr_viability>  (4) 
0.0

>  <TOX21_RT_HEPG2_FLO_16hr_ctrl_viability>  (4) 
0.0

>  <TOX21_RT_HEPG2_FLO_24hr_viability>  (4) 
0.0

>  <TOX21_RT_HEPG2_FLO_32hr_ctrl_viability>  (4) 
0.0

>  <TOX21_RT_HEPG2_GLO_00hr_ctrl_viability>  (4) 
0.0

>  <TOX21_RT_HEPG2_GLO_08hr_ctrl_viability>  (4) 
0.0

>  <TOX21_RT_HEPG2_GLO_16hr_ctrl_viability>  (4) 
0.0

>  <TOX21_RT_HEPG2_GLO_24hr_ctrl_viability>  (4) 
0.0

>  <TOX21_RT_HEPG2_GLO_32hr_ctrl_viability>  (4) 
0.0

>  <TOX21_RT_HEPG2_GLO_40hr_viability>  (4) 
0.0

>  <TOX21_RXR_BLA_Agonist_ch1>  (4) 
0.0

>  <TOX21_RXR_BLA_Agonist_ch2>  (4) 
0.0

>  <TOX21_RXR_BLA_Agonist_ratio>  (4) 
0.0

>  <TOX21_RXR_BLA_Agonist_viability>  (4) 
0.0

>  <TOX21_SBE_BLA_Agonist_ch1>  (4) 
0.0

>  <TOX21_SBE_BLA_Agonist_ch2>  (4) 
0.0

>  <TOX21_SBE_BLA_Agonist_ratio>  (4) 
0.0

>  <TOX21_SBE_BLA_Agonist_viability>  (4) 
0.0

>  <TOX21_SBE_BLA_Antagonist_ch1>  (4) 
0.0

>  <TOX21_SBE_BLA_Antagonist_ch2>  (4) 
0.0

>  <TOX21_SBE_BLA_Antagonist_ratio>  (4) 
0.0

>  <TOX21_SBE_BLA_Antagonist_viability>  (4) 
0.0

>  <TOX21_SSH_3T3_GLI3_Agonist>  (4) 
0.0

>  <TOX21_SSH_3T3_GLI3_Agonist_viability>  (4) 
0.0

>  <TOX21_SSH_3T3_GLI3_Antagonist>  (4) 
1.0

>  <TOX21_SSH_3T3_GLI3_Antagonist_viability>  (4) 
0.0

>  <TOX21_TRHR_HEK293_Agonist>  (4) 
0.0

>  <TOX21_TRHR_HEK293_Antagonist>  (4) 
0.0

>  <TOX21_TR_LUC_GH3_Agonist>  (4) 
0.0

>  <TOX21_TR_LUC_GH3_Antagonist>  (4) 
0.0

>  <TOX21_TR_LUC_GH3_Antagonist_viability>  (4) 
0.0

>  <TOX21_TSHR_Agonist_ch2>  (4) 
0.0

>  <TOX21_TSHR_Antagonist_ch2>  (4) 
0.0

>  <TOX21_TSHR_Antagonist_ratio>  (4) 
0.0

>  <TOX21_TSHR_HTRF_Agonist_ch1>  (4) 
0.0

>  <TOX21_TSHR_HTRF_Antagonist_ch1>  (4) 
0.0

>  <TOX21_TSHR_wt_HTRF_ch1>  (4) 
0.0

>  <TOX21_TSHR_wt_ch2>  (4) 
0.0

>  <TOX21_TSHR_wt_ratio>  (4) 
0.0

>  <TOX21_VDR_BLA_Agonist_viability>  (4) 
0.0

>  <TOX21_VDR_BLA_Antagonist_ch1>  (4) 
0.0

>  <TOX21_VDR_BLA_Antagonist_ch2>  (4) 
0.0

>  <TOX21_VDR_BLA_agonist_ch1>  (4) 
0.0

>  <TOX21_VDR_BLA_agonist_ch2>  (4) 
0.0

>  <TOX21_VDR_BLA_agonist_ratio>  (4) 
0.0

>  <TOX21_VDR_BLA_antagonist_ratio>  (4) 
0.0

>  <TOX21_VDR_BLA_antagonist_viability>  (4) 
0.0

>  <TOX21_p53_BLA_p1_ch1>  (4) 
0.0

>  <TOX21_p53_BLA_p1_ch2>  (4) 
0.0

>  <TOX21_p53_BLA_p1_ratio>  (4) 
0.0

>  <TOX21_p53_BLA_p1_viability>  (4) 
0.0

>  <TOX21_p53_BLA_p2_ch1>  (4) 
0.0

>  <TOX21_p53_BLA_p2_ch2>  (4) 
0.0

>  <TOX21_p53_BLA_p2_ratio>  (4) 
0.0

>  <TOX21_p53_BLA_p2_viability>  (4) 
0.0

>  <TOX21_p53_BLA_p3_ch1>  (4) 
0.0

>  <TOX21_p53_BLA_p3_ch2>  (4) 
0.0

>  <TOX21_p53_BLA_p3_ratio>  (4) 
0.0

>  <TOX21_p53_BLA_p4_ch1>  (4) 
0.0

>  <TOX21_p53_BLA_p4_ch2>  (4) 
0.0

>  <TOX21_p53_BLA_p4_ratio>  (4) 
0.0

>  <TOX21_p53_BLA_p4_viability>  (4) 
0.0

>  <TOX21_p53_BLA_p5_ch1>  (4) 
0.0

>  <TOX21_p53_BLA_p5_ch2>  (4) 
0.0

>  <TOX21_p53_BLA_p5_ratio>  (4) 
0.0

>  <TOX21_p53_BLA_p5_viability>  (4) 
0.0

>  <Tanguay_ZF_120hpf_AXIS_up>  (4) 
0.0

>  <Tanguay_ZF_120hpf_ActivityScore>  (4) 
0.0

>  <Tanguay_ZF_120hpf_BRAI_up>  (4) 
0.0

>  <Tanguay_ZF_120hpf_CFIN_up>  (4) 
0.0

>  <Tanguay_ZF_120hpf_CIRC_up>  (4) 
0.0

>  <Tanguay_ZF_120hpf_EYE_up>  (4) 
0.0

>  <Tanguay_ZF_120hpf_JAW_up>  (4) 
0.0

>  <Tanguay_ZF_120hpf_MORT_up>  (4) 
0.0

>  <Tanguay_ZF_120hpf_NC_up>  (4) 
0.0

>  <Tanguay_ZF_120hpf_OTIC_up>  (4) 
0.0

>  <Tanguay_ZF_120hpf_PE_up>  (4) 
0.0

>  <Tanguay_ZF_120hpf_PFIN_up>  (4) 
0.0

>  <Tanguay_ZF_120hpf_PIG_up>  (4) 
0.0

>  <Tanguay_ZF_120hpf_SNOU_up>  (4) 
0.0

>  <Tanguay_ZF_120hpf_SOMI_up>  (4) 
0.0

>  <Tanguay_ZF_120hpf_SWIM_up>  (4) 
0.0

>  <Tanguay_ZF_120hpf_TRUN_up>  (4) 
0.0

>  <Tanguay_ZF_120hpf_TR_up>  (4) 
0.0

>  <Tanguay_ZF_120hpf_YSE_up>  (4) 
0.0

>  <UPITT_HCI_U2OS_AR_TIF2_Nucleoli_Agonist>  (4) 
0.0

>  <UPITT_HCI_U2OS_AR_TIF2_Nucleoli_Antagonist>  (4) 
1.0

>  <UPITT_HCI_U2OS_AR_TIF2_Nucleoli_Cytoplasm_Ratio_Agonist>  (4) 
0.0

>  <UPITT_HCI_U2OS_AR_TIF2_Nucleoli_Cytoplasm_Ratio_Antagonist>  (4) 
1.0

>  <NVS_NR_mERa>  (4) 
1.0

$$$$

     RDKit          3D

 21 24  0  0  0  0  0  0  0  0999 V2000
    0.0000    0.0000    0.0000 C   0  0  0  0  0  0  0  0  0  0  0  0
    0.0000    0.0000    0.0000 C   0  0  0  0  0  0  0  0  0  0  0  0
    0.0000    0.0000    0.0000 C   0  0  0  0  0  0  0  0  0  0  0  0
    0.0000    0.0000    0.0000 C   0  0  0  0  0  0  0  0  0  0  0  0
    0.0000    0.0000    0.0000 C   0  0  0  0  0  0  0  0  0  0  0  0
    0.0000    0.0000    0.0000 C   0  0  0  0  0  0  0  0  0  0  0  0
    0.0000    0.0000    0.0000 C   0  0  0  0  0  0  0  0  0  0  0  0
    0.0000    0.0000    0.0000 C   0  0  0  0  0  0  0  0  0  0  0  0
    0.0000    0.0000    0.0000 C   0  0  0  0  0  0  0  0  0  0  0  0
    0.0000    0.0000    0.0000 C   0  0  0  0  0  0  0  0  0  0  0  0
    0.0000    0.0000    0.0000 O   0  0  0  0  0  0  0  0  0  0  0  0
    0.0000    0.0000    0.0000 O   0  0  0  0  0  0  0  0  0  0  0  0
    0.0000    0.0000    0.0000 C   0  0  0  0  0  0  0  0  0  0  0  0
    0.0000    0.0000    0.0000 C   0  0  0  0  0  0  0  0  0  0  0  0
    0.0000    0.0000    0.0000 C   0  0  0  0  0  0  0  0  0  0  0  0
    0.0000    0.0000    0.0000 C   0  0  0  0  0  0  0  0  0  0  0  0
    0.0000    0.0000    0.0000 C   0  0  0  0  0  0  0  0  0  0  0  0
    0.0000    0.0000    0.0000 C   0  0  0  0  0  0  0  0  0  0  0  0
    0.0000    0.0000    0.0000 C   0  0  0  0  0  0  0  0  0  0  0  0
    0.0000    0.0000    0.0000 C   0  0  0  0  0  0  0  0  0  0  0  0
    0.0000    0.0000    0.0000 O   0  0  0  0  0  0  0  0  0  0  0  0
  1  2  1  0
  2  3  1  0
  3  4  1  0
  4  5  1  0
  5  6  1  0
  6  7  1  0
  7  8  1  0
  8  9  1  0
  9 10  1  0
 10 11  1  0
  9 12  1  0
  6 13  1  0
 13 14  1  0
 14 15  1  0
 15 16  2  0
 16 17  1  0
 17 18  2  0
 18 19  1  0
 19 20  2  0
 19 21  1  0
  7  2  1  0
 10  2  1  0
 16  5  1  0
 20 15  1  0
M  END
>  <CASRN>  (5) 
50-27-1

>  <Name>  (5) 
Estriol

>  <Active>  (5) 
4

>  <Inactive>  (5) 
0

>  <Bioactivity>  (5) 
Active

>  <Min LEL>  (5) 
0.002

>  <Max HDT>  (5) 
nan

>  <Class>  (5) 
1

>  <Code>  (5) 
C50271

>  <NVS_NR_hER>  (5) 
1.0

>  <NVS_NR_cAR>  (5) 
0.0

>  <NVS_NR_hAR>  (5) 
1.0

>  <NVS_NR_hGR>  (5) 
0.0

>  <NVS_NR_hPR>  (5) 
1.0

>  <NVS_NR_rAR>  (5) 
0.0

>  <OT_ER_ERaERb_1440>  (5) 
1.0

>  <OT_FXR_FXRSRC1_0480>  (5) 
0.0

>  <OT_PPARg_PPARgSRC1_1440>  (5) 
0.0

>  <OT_FXR_FXRSRC1_1440>  (5) 
1.0

>  <OT_NURR1_NURR1RXRa_0480>  (5) 
0.0

>  <OT_NURR1_NURR1RXRa_1440>  (5) 
0.0

>  <OT_PPARg_PPARgSRC1_0480>  (5) 
0.0

>  <OT_AR_ARELUC_AG_1440>  (5) 
0.0

>  <OT_ERa_EREGFP_0120>  (5) 
1.0

>  <BSK_3C_HLADR_down>  (5) 
0.0

>  <BSK_3C_Vis_down>  (5) 
0.0

>  <BSK_3C_uPAR_down>  (5) 
0.0

>  <ATG_CAR_TRANS_up>  (5) 
0.0

>  <ATG_E2F_CIS_dn>  (5) 
0.0

>  <ATG_EGR_CIS_up>  (5) 
0.0

>  <ATG_ERa_TRANS_dn>  (5) 
0.0

>  <ATG_ERa_TRANS_up>  (5) 
1.0

>  <ATG_FXR_TRANS_dn>  (5) 
0.0

>  <ATG_GLI_CIS_dn>  (5) 
0.0

>  <ATG_GRE_CIS_up>  (5) 
0.0

>  <ATG_LXRa_TRANS_dn>  (5) 
0.0

>  <ATG_LXRa_TRANS_up>  (5) 
0.0

>  <ATG_NRF1_CIS_up>  (5) 
0.0

>  <ATG_NURR1_TRANS_up>  (5) 
0.0

>  <ATG_Sox_CIS_dn>  (5) 
0.0

>  <ATG_Sox_CIS_up>  (5) 
0.0

>  <ATG_Sp1_CIS_up>  (5) 
0.0

>  <ATG_TGFb_CIS_up>  (5) 
0.0

>  <TOX21_ARE_BLA_agonist_ratio>  (5) 
0.0

>  <TOX21_RAR_LUC_Antagonist>  (5) 
1.0

>  <ATG_LXRb_TRANS_dn>  (5) 
0.0

>  <ATG_CAR_TRANS_dn>  (5) 
0.0

>  <ATG_BRE_CIS_dn>  (5) 
0.0

>  <ATG_E2F_CIS_up>  (5) 
0.0

>  <TOX21_TSHR_Agonist_ratio>  (5) 
0.0

>  <ACEA_ER_80hr>  (5) 
1.0

>  <TOX21_CAR_Agonist_viabillity>  (5) 
0.0

>  <TOX21_PR_BLA_Agonist_viability>  (5) 
0.0

>  <TOX21_RT_HEPG2_FLO_40hr_ctrl_viability>  (5) 
0.0

>  <TOX21_AhR_LUC_Agonist_viability>  (5) 
0.0

>  <TOX21_ERR_viability>  (5) 
0.0

>  <TOX21_p53_BLA_p3_viability>  (5) 
0.0

>  <NVS_NR_bER>  (5) 
1.0

>  <ACEA_AR_agonist_80hr>  (5) 
1.0

>  <ACEA_AR_agonist_AUC_viability>  (5) 
0.0

>  <ACEA_AR_antagonist_80hr>  (5) 
1.0

>  <ACEA_AR_antagonist_AUC_viability>  (5) 
1.0

>  <ACEA_ER_AUC_viability>  (5) 
0.0

>  <ATG_AP_1_CIS_dn>  (5) 
0.0

>  <ATG_AP_1_CIS_up>  (5) 
0.0

>  <ATG_AP_2_CIS_dn>  (5) 
1.0

>  <ATG_AP_2_CIS_up>  (5) 
0.0

>  <ATG_AR_TRANS_dn>  (5) 
0.0

>  <ATG_AR_TRANS_up>  (5) 
0.0

>  <ATG_Ahr_CIS_dn>  (5) 
0.0

>  <ATG_Ahr_CIS_up>  (5) 
0.0

>  <ATG_BRE_CIS_up>  (5) 
0.0

>  <ATG_CMV_CIS_dn>  (5) 
0.0

>  <ATG_CMV_CIS_up>  (5) 
0.0

>  <ATG_CRE_CIS_dn>  (5) 
0.0

>  <ATG_CRE_CIS_up>  (5) 
0.0

>  <ATG_C_EBP_CIS_dn>  (5) 
0.0

>  <ATG_C_EBP_CIS_up>  (5) 
0.0

>  <ATG_DR4_LXR_CIS_dn>  (5) 
0.0

>  <ATG_DR4_LXR_CIS_up>  (5) 
0.0

>  <ATG_DR5_CIS_dn>  (5) 
0.0

>  <ATG_DR5_CIS_up>  (5) 
0.0

>  <ATG_EGR_CIS_dn>  (5) 
0.0

>  <ATG_ERE_CIS_dn>  (5) 
0.0

>  <ATG_ERE_CIS_up>  (5) 
1.0

>  <ATG_ERRa_TRANS_dn>  (5) 
0.0

>  <ATG_ERRa_TRANS_up>  (5) 
0.0

>  <ATG_ERRg_TRANS_dn>  (5) 
0.0

>  <ATG_ERRg_TRANS_up>  (5) 
0.0

>  <ATG_E_Box_CIS_dn>  (5) 
0.0

>  <ATG_E_Box_CIS_up>  (5) 
0.0

>  <ATG_Ets_CIS_dn>  (5) 
0.0

>  <ATG_Ets_CIS_up>  (5) 
0.0

>  <ATG_FXR_TRANS_up>  (5) 
0.0

>  <ATG_FoxA2_CIS_dn>  (5) 
0.0

>  <ATG_FoxA2_CIS_up>  (5) 
0.0

>  <ATG_FoxO_CIS_dn>  (5) 
0.0

>  <ATG_FoxO_CIS_up>  (5) 
0.0

>  <ATG_GAL4_TRANS_dn>  (5) 
0.0

>  <ATG_GAL4_TRANS_up>  (5) 
0.0

>  <ATG_GATA_CIS_dn>  (5) 
0.0

>  <ATG_GATA_CIS_up>  (5) 
0.0

>  <ATG_GLI_CIS_up>  (5) 
0.0

>  <ATG_GRE_CIS_dn>  (5) 
0.0

>  <ATG_GR_TRANS_dn>  (5) 
0.0

>  <ATG_GR_TRANS_up>  (5) 
0.0

>  <ATG_HIF1a_CIS_dn>  (5) 
0.0

>  <ATG_HIF1a_CIS_up>  (5) 
0.0

>  <ATG_HNF4a_TRANS_dn>  (5) 
0.0

>  <ATG_HNF4a_TRANS_up>  (5) 
0.0

>  <ATG_HNF6_CIS_dn>  (5) 
0.0

>  <ATG_HNF6_CIS_up>  (5) 
0.0

>  <ATG_HSE_CIS_dn>  (5) 
0.0

>  <ATG_HSE_CIS_up>  (5) 
0.0

>  <ATG_IR1_CIS_dn>  (5) 
0.0

>  <ATG_IR1_CIS_up>  (5) 
0.0

>  <ATG_ISRE_CIS_dn>  (5) 
0.0

>  <ATG_ISRE_CIS_up>  (5) 
0.0

>  <ATG_LXRb_TRANS_up>  (5) 
0.0

>  <ATG_MRE_CIS_dn>  (5) 
0.0

>  <ATG_MRE_CIS_up>  (5) 
0.0

>  <ATG_M_06_CIS_dn>  (5) 
0.0

>  <ATG_M_06_CIS_up>  (5) 
0.0

>  <ATG_M_06_TRANS_dn>  (5) 
0.0

>  <ATG_M_06_TRANS_up>  (5) 
0.0

>  <ATG_M_19_CIS_dn>  (5) 
0.0

>  <ATG_M_19_CIS_up>  (5) 
0.0

>  <ATG_M_19_TRANS_dn>  (5) 
0.0

>  <ATG_M_19_TRANS_up>  (5) 
0.0

>  <ATG_M_32_CIS_dn>  (5) 
0.0

>  <ATG_M_32_CIS_up>  (5) 
0.0

>  <ATG_M_32_TRANS_dn>  (5) 
0.0

>  <ATG_M_32_TRANS_up>  (5) 
0.0

>  <ATG_M_61_CIS_dn>  (5) 
0.0

>  <ATG_M_61_CIS_up>  (5) 
0.0

>  <ATG_M_61_TRANS_dn>  (5) 
0.0

>  <ATG_M_61_TRANS_up>  (5) 
0.0

>  <ATG_Myb_CIS_dn>  (5) 
0.0

>  <ATG_Myb_CIS_up>  (5) 
0.0

>  <ATG_Myc_CIS_dn>  (5) 
0.0

>  <ATG_Myc_CIS_up>  (5) 
0.0

>  <ATG_NFI_CIS_dn>  (5) 
0.0

>  <ATG_NFI_CIS_up>  (5) 
0.0

>  <ATG_NF_kB_CIS_dn>  (5) 
0.0

>  <ATG_NF_kB_CIS_up>  (5) 
0.0

>  <ATG_NRF1_CIS_dn>  (5) 
0.0

>  <ATG_NRF2_ARE_CIS_dn>  (5) 
0.0

>  <ATG_NRF2_ARE_CIS_up>  (5) 
0.0

>  <ATG_NURR1_TRANS_dn>  (5) 
0.0

>  <ATG_Oct_MLP_CIS_dn>  (5) 
0.0

>  <ATG_Oct_MLP_CIS_up>  (5) 
0.0

>  <ATG_PBREM_CIS_dn>  (5) 
0.0

>  <ATG_PBREM_CIS_up>  (5) 
0.0

>  <ATG_PPARa_TRANS_dn>  (5) 
0.0

>  <ATG_PPARa_TRANS_up>  (5) 
0.0

>  <ATG_PPARd_TRANS_dn>  (5) 
0.0

>  <ATG_PPARd_TRANS_up>  (5) 
0.0

>  <ATG_PPARg_TRANS_dn>  (5) 
0.0

>  <ATG_PPARg_TRANS_up>  (5) 
0.0

>  <ATG_PPRE_CIS_dn>  (5) 
0.0

>  <ATG_PPRE_CIS_up>  (5) 
0.0

>  <ATG_PXRE_CIS_dn>  (5) 
0.0

>  <ATG_PXRE_CIS_up>  (5) 
0.0

>  <ATG_PXR_TRANS_dn>  (5) 
0.0

>  <ATG_PXR_TRANS_up>  (5) 
0.0

>  <ATG_Pax6_CIS_dn>  (5) 
0.0

>  <ATG_Pax6_CIS_up>  (5) 
0.0

>  <ATG_RARa_TRANS_dn>  (5) 
0.0

>  <ATG_RARa_TRANS_up>  (5) 
0.0

>  <ATG_RARb_TRANS_dn>  (5) 
0.0

>  <ATG_RARb_TRANS_up>  (5) 
0.0

>  <ATG_RARg_TRANS_dn>  (5) 
0.0

>  <ATG_RARg_TRANS_up>  (5) 
0.0

>  <ATG_RORE_CIS_dn>  (5) 
0.0

>  <ATG_RORE_CIS_up>  (5) 
0.0

>  <ATG_RORb_TRANS_dn>  (5) 
0.0

>  <ATG_RORb_TRANS_up>  (5) 
0.0

>  <ATG_RORg_TRANS_dn>  (5) 
0.0

>  <ATG_RORg_TRANS_up>  (5) 
0.0

>  <ATG_RXRa_TRANS_dn>  (5) 
0.0

>  <ATG_RXRa_TRANS_up>  (5) 
0.0

>  <ATG_RXRb_TRANS_dn>  (5) 
0.0

>  <ATG_RXRb_TRANS_up>  (5) 
0.0

>  <ATG_SREBP_CIS_dn>  (5) 
0.0

>  <ATG_SREBP_CIS_up>  (5) 
0.0

>  <ATG_STAT3_CIS_dn>  (5) 
0.0

>  <ATG_STAT3_CIS_up>  (5) 
0.0

>  <ATG_Sp1_CIS_dn>  (5) 
0.0

>  <ATG_TAL_CIS_dn>  (5) 
0.0

>  <ATG_TAL_CIS_up>  (5) 
0.0

>  <ATG_TA_CIS_dn>  (5) 
0.0

>  <ATG_TA_CIS_up>  (5) 
0.0

>  <ATG_TCF_b_cat_CIS_dn>  (5) 
0.0

>  <ATG_TCF_b_cat_CIS_up>  (5) 
0.0

>  <ATG_TGFb_CIS_dn>  (5) 
0.0

>  <ATG_THRa1_TRANS_dn>  (5) 
0.0

>  <ATG_THRa1_TRANS_up>  (5) 
0.0

>  <ATG_VDRE_CIS_dn>  (5) 
0.0

>  <ATG_VDRE_CIS_up>  (5) 
1.0

>  <ATG_VDR_TRANS_dn>  (5) 
0.0

>  <ATG_VDR_TRANS_up>  (5) 
0.0

>  <ATG_XTT_Cytotoxicity_up>  (5) 
0.0

>  <ATG_Xbp1_CIS_dn>  (5) 
0.0

>  <ATG_Xbp1_CIS_up>  (5) 
0.0

>  <ATG_p53_CIS_dn>  (5) 
0.0

>  <ATG_p53_CIS_up>  (5) 
0.0

>  <BSK_3C_Eselectin_down>  (5) 
0.0

>  <BSK_3C_Eselectin_up>  (5) 
0.0

>  <BSK_3C_HLADR_up>  (5) 
0.0

>  <BSK_3C_ICAM1_down>  (5) 
0.0

>  <BSK_3C_ICAM1_up>  (5) 
0.0

>  <BSK_3C_IL8_down>  (5) 
0.0

>  <BSK_3C_IL8_up>  (5) 
0.0

>  <BSK_3C_MCP1_down>  (5) 
0.0

>  <BSK_3C_MCP1_up>  (5) 
0.0

>  <BSK_3C_MIG_down>  (5) 
0.0

>  <BSK_3C_MIG_up>  (5) 
0.0

>  <BSK_3C_Proliferation_down>  (5) 
0.0

>  <BSK_3C_Proliferation_up>  (5) 
0.0

>  <BSK_3C_SRB_down>  (5) 
0.0

>  <BSK_3C_SRB_up>  (5) 
0.0

>  <BSK_3C_Thrombomodulin_down>  (5) 
0.0

>  <BSK_3C_Thrombomodulin_up>  (5) 
0.0

>  <BSK_3C_TissueFactor_down>  (5) 
0.0

>  <BSK_3C_TissueFactor_up>  (5) 
0.0

>  <BSK_3C_VCAM1_down>  (5) 
0.0

>  <BSK_3C_VCAM1_up>  (5) 
0.0

>  <BSK_3C_Vis_up>  (5) 
0.0

>  <BSK_3C_uPAR_up>  (5) 
0.0

>  <BSK_4H_Eotaxin3_down>  (5) 
1.0

>  <BSK_4H_Eotaxin3_up>  (5) 
0.0

>  <BSK_4H_MCP1_down>  (5) 
0.0

>  <BSK_4H_MCP1_up>  (5) 
0.0

>  <BSK_4H_Pselectin_down>  (5) 
0.0

>  <BSK_4H_Pselectin_up>  (5) 
0.0

>  <BSK_4H_SRB_down>  (5) 
0.0

>  <BSK_4H_SRB_up>  (5) 
0.0

>  <BSK_4H_VCAM1_down>  (5) 
0.0

>  <BSK_4H_VCAM1_up>  (5) 
0.0

>  <BSK_4H_VEGFRII_down>  (5) 
0.0

>  <BSK_4H_VEGFRII_up>  (5) 
0.0

>  <BSK_4H_uPAR_down>  (5) 
0.0

>  <BSK_4H_uPAR_up>  (5) 
0.0

>  <BSK_BE3C_HLADR_down>  (5) 
0.0

>  <BSK_BE3C_HLADR_up>  (5) 
0.0

>  <BSK_BE3C_IL1a_down>  (5) 
0.0

>  <BSK_BE3C_IL1a_up>  (5) 
0.0

>  <BSK_BE3C_IP10_down>  (5) 
0.0

>  <BSK_BE3C_IP10_up>  (5) 
0.0

>  <BSK_BE3C_MIG_down>  (5) 
0.0

>  <BSK_BE3C_MIG_up>  (5) 
0.0

>  <BSK_BE3C_MMP1_down>  (5) 
0.0

>  <BSK_BE3C_MMP1_up>  (5) 
0.0

>  <BSK_BE3C_PAI1_down>  (5) 
0.0

>  <BSK_BE3C_PAI1_up>  (5) 
0.0

>  <BSK_BE3C_SRB_down>  (5) 
0.0

>  <BSK_BE3C_SRB_up>  (5) 
0.0

>  <BSK_BE3C_TGFb1_down>  (5) 
0.0

>  <BSK_BE3C_TGFb1_up>  (5) 
0.0

>  <BSK_BE3C_tPA_down>  (5) 
0.0

>  <BSK_BE3C_tPA_up>  (5) 
0.0

>  <BSK_BE3C_uPAR_down>  (5) 
0.0

>  <BSK_BE3C_uPAR_up>  (5) 
0.0

>  <BSK_BE3C_uPA_down>  (5) 
0.0

>  <BSK_BE3C_uPA_up>  (5) 
0.0

>  <BSK_CASM3C_HLADR_down>  (5) 
0.0

>  <BSK_CASM3C_HLADR_up>  (5) 
0.0

>  <BSK_CASM3C_IL6_down>  (5) 
0.0

>  <BSK_CASM3C_IL6_up>  (5) 
0.0

>  <BSK_CASM3C_IL8_down>  (5) 
0.0

>  <BSK_CASM3C_IL8_up>  (5) 
0.0

>  <BSK_CASM3C_LDLR_down>  (5) 
0.0

>  <BSK_CASM3C_LDLR_up>  (5) 
0.0

>  <BSK_CASM3C_MCP1_down>  (5) 
0.0

>  <BSK_CASM3C_MCP1_up>  (5) 
0.0

>  <BSK_CASM3C_MCSF_down>  (5) 
1.0

>  <BSK_CASM3C_MCSF_up>  (5) 
0.0

>  <BSK_CASM3C_MIG_down>  (5) 
1.0

>  <BSK_CASM3C_MIG_up>  (5) 
0.0

>  <BSK_CASM3C_Proliferation_down>  (5) 
0.0

>  <BSK_CASM3C_Proliferation_up>  (5) 
0.0

>  <BSK_CASM3C_SAA_down>  (5) 
0.0

>  <BSK_CASM3C_SAA_up>  (5) 
0.0

>  <BSK_CASM3C_SRB_down>  (5) 
0.0

>  <BSK_CASM3C_SRB_up>  (5) 
0.0

>  <BSK_CASM3C_Thrombomodulin_down>  (5) 
0.0

>  <BSK_CASM3C_Thrombomodulin_up>  (5) 
0.0

>  <BSK_CASM3C_TissueFactor_down>  (5) 
0.0

>  <BSK_CASM3C_TissueFactor_up>  (5) 
0.0

>  <BSK_CASM3C_VCAM1_down>  (5) 
0.0

>  <BSK_CASM3C_VCAM1_up>  (5) 
0.0

>  <BSK_CASM3C_uPAR_down>  (5) 
0.0

>  <BSK_CASM3C_uPAR_up>  (5) 
0.0

>  <BSK_KF3CT_ICAM1_down>  (5) 
0.0

>  <BSK_KF3CT_ICAM1_up>  (5) 
0.0

>  <BSK_KF3CT_IL1a_down>  (5) 
0.0

>  <BSK_KF3CT_IL1a_up>  (5) 
0.0

>  <BSK_KF3CT_IP10_down>  (5) 
0.0

>  <BSK_KF3CT_IP10_up>  (5) 
0.0

>  <BSK_KF3CT_MCP1_down>  (5) 
0.0

>  <BSK_KF3CT_MCP1_up>  (5) 
0.0

>  <BSK_KF3CT_MMP9_down>  (5) 
0.0

>  <BSK_KF3CT_MMP9_up>  (5) 
0.0

>  <BSK_KF3CT_SRB_down>  (5) 
0.0

>  <BSK_KF3CT_SRB_up>  (5) 
0.0

>  <BSK_KF3CT_TGFb1_down>  (5) 
0.0

>  <BSK_KF3CT_TGFb1_up>  (5) 
0.0

>  <BSK_KF3CT_TIMP2_down>  (5) 
0.0

>  <BSK_KF3CT_TIMP2_up>  (5) 
0.0

>  <BSK_KF3CT_uPA_down>  (5) 
0.0

>  <BSK_KF3CT_uPA_up>  (5) 
0.0

>  <BSK_LPS_CD40_down>  (5) 
0.0

>  <BSK_LPS_CD40_up>  (5) 
0.0

>  <BSK_LPS_Eselectin_down>  (5) 
0.0

>  <BSK_LPS_Eselectin_up>  (5) 
0.0

>  <BSK_LPS_IL1a_down>  (5) 
0.0

>  <BSK_LPS_IL1a_up>  (5) 
0.0

>  <BSK_LPS_IL8_down>  (5) 
0.0

>  <BSK_LPS_IL8_up>  (5) 
0.0

>  <BSK_LPS_MCP1_down>  (5) 
0.0

>  <BSK_LPS_MCP1_up>  (5) 
0.0

>  <BSK_LPS_MCSF_down>  (5) 
0.0

>  <BSK_LPS_MCSF_up>  (5) 
0.0

>  <BSK_LPS_PGE2_down>  (5) 
0.0

>  <BSK_LPS_PGE2_up>  (5) 
0.0

>  <BSK_LPS_SRB_down>  (5) 
0.0

>  <BSK_LPS_SRB_up>  (5) 
0.0

>  <BSK_LPS_TNFa_down>  (5) 
0.0

>  <BSK_LPS_TNFa_up>  (5) 
0.0

>  <BSK_LPS_TissueFactor_down>  (5) 
0.0

>  <BSK_LPS_TissueFactor_up>  (5) 
0.0

>  <BSK_LPS_VCAM1_down>  (5) 
0.0

>  <BSK_LPS_VCAM1_up>  (5) 
0.0

>  <BSK_SAg_CD38_down>  (5) 
0.0

>  <BSK_SAg_CD38_up>  (5) 
0.0

>  <BSK_SAg_CD40_down>  (5) 
0.0

>  <BSK_SAg_CD40_up>  (5) 
0.0

>  <BSK_SAg_CD69_down>  (5) 
0.0

>  <BSK_SAg_CD69_up>  (5) 
0.0

>  <BSK_SAg_Eselectin_down>  (5) 
0.0

>  <BSK_SAg_Eselectin_up>  (5) 
0.0

>  <BSK_SAg_IL8_down>  (5) 
0.0

>  <BSK_SAg_IL8_up>  (5) 
0.0

>  <BSK_SAg_MCP1_down>  (5) 
0.0

>  <BSK_SAg_MCP1_up>  (5) 
0.0

>  <BSK_SAg_MIG_down>  (5) 
0.0

>  <BSK_SAg_MIG_up>  (5) 
0.0

>  <BSK_SAg_PBMCCytotoxicity_down>  (5) 
0.0

>  <BSK_SAg_PBMCCytotoxicity_up>  (5) 
0.0

>  <BSK_SAg_Proliferation_down>  (5) 
1.0

>  <BSK_SAg_Proliferation_up>  (5) 
0.0

>  <BSK_SAg_SRB_down>  (5) 
0.0

>  <BSK_SAg_SRB_up>  (5) 
0.0

>  <BSK_hDFCGF_CollagenIII_down>  (5) 
0.0

>  <BSK_hDFCGF_CollagenIII_up>  (5) 
0.0

>  <BSK_hDFCGF_EGFR_down>  (5) 
0.0

>  <BSK_hDFCGF_EGFR_up>  (5) 
0.0

>  <BSK_hDFCGF_IL8_down>  (5) 
0.0

>  <BSK_hDFCGF_IL8_up>  (5) 
0.0

>  <BSK_hDFCGF_IP10_down>  (5) 
0.0

>  <BSK_hDFCGF_IP10_up>  (5) 
0.0

>  <BSK_hDFCGF_MCSF_down>  (5) 
0.0

>  <BSK_hDFCGF_MCSF_up>  (5) 
0.0

>  <BSK_hDFCGF_MIG_down>  (5) 
0.0

>  <BSK_hDFCGF_MIG_up>  (5) 
0.0

>  <BSK_hDFCGF_MMP1_down>  (5) 
0.0

>  <BSK_hDFCGF_MMP1_up>  (5) 
0.0

>  <BSK_hDFCGF_PAI1_down>  (5) 
0.0

>  <BSK_hDFCGF_PAI1_up>  (5) 
0.0

>  <BSK_hDFCGF_Proliferation_down>  (5) 
0.0

>  <BSK_hDFCGF_Proliferation_up>  (5) 
0.0

>  <BSK_hDFCGF_SRB_down>  (5) 
0.0

>  <BSK_hDFCGF_SRB_up>  (5) 
0.0

>  <BSK_hDFCGF_TIMP1_down>  (5) 
0.0

>  <BSK_hDFCGF_TIMP1_up>  (5) 
0.0

>  <BSK_hDFCGF_VCAM1_down>  (5) 
0.0

>  <BSK_hDFCGF_VCAM1_up>  (5) 
0.0

>  <CEETOX_H295R_11DCORT_dn>  (5) 
0.0

>  <CEETOX_H295R_11DCORT_up>  (5) 
0.0

>  <CEETOX_H295R_ANDR_dn>  (5) 
1.0

>  <CEETOX_H295R_ANDR_up>  (5) 
0.0

>  <CEETOX_H295R_CORTIC_dn>  (5) 
0.0

>  <CEETOX_H295R_CORTIC_up>  (5) 
0.0

>  <CEETOX_H295R_CORTISOL_dn>  (5) 
0.0

>  <CEETOX_H295R_CORTISOL_up>  (5) 
0.0

>  <CEETOX_H295R_DOC_dn>  (5) 
0.0

>  <CEETOX_H295R_DOC_up>  (5) 
1.0

>  <CEETOX_H295R_ESTRADIOL_dn>  (5) 
0.0

>  <CEETOX_H295R_ESTRADIOL_up>  (5) 
1.0

>  <CEETOX_H295R_ESTRONE_dn>  (5) 
0.0

>  <CEETOX_H295R_ESTRONE_up>  (5) 
1.0

>  <CEETOX_H295R_MTT_cell_viability_dn>  (5) 
1.0

>  <CEETOX_H295R_MTT_cell_viability_up>  (5) 
0.0

>  <CEETOX_H295R_OHPREG_dn>  (5) 
0.0

>  <CEETOX_H295R_OHPREG_up>  (5) 
1.0

>  <CEETOX_H295R_OHPROG_dn>  (5) 
0.0

>  <CEETOX_H295R_OHPROG_up>  (5) 
0.0

>  <CEETOX_H295R_PROG_dn>  (5) 
0.0

>  <CEETOX_H295R_PROG_up>  (5) 
0.0

>  <CEETOX_H295R_TESTO_dn>  (5) 
0.0

>  <CEETOX_H295R_TESTO_up>  (5) 
0.0

>  <NCCT_HEK293T_CellTiterGLO>  (5) 
0.0

>  <NCCT_QuantiLum_inhib_2_dn>  (5) 
0.0

>  <NCCT_TPO_AUR_dn>  (5) 
1.0

>  <NVS_GPCR_hTXA2>  (5) 
0.0

>  <NVS_GPCR_rTRH>  (5) 
0.0

>  <NVS_TR_gDAT>  (5) 
1.0

>  <NVS_TR_hDAT>  (5) 
1.0

>  <OT_AR_ARSRC1_0480>  (5) 
0.0

>  <OT_AR_ARSRC1_0960>  (5) 
1.0

>  <OT_ER_ERaERa_0480>  (5) 
1.0

>  <OT_ER_ERaERa_1440>  (5) 
1.0

>  <OT_ER_ERaERb_0480>  (5) 
1.0

>  <OT_ER_ERbERb_0480>  (5) 
1.0

>  <OT_ER_ERbERb_1440>  (5) 
1.0

>  <OT_ERa_EREGFP_0480>  (5) 
1.0

>  <TOX21_AP1_BLA_Agonist_ch1>  (5) 
0.0

>  <TOX21_AP1_BLA_Agonist_ch2>  (5) 
0.0

>  <TOX21_AP1_BLA_Agonist_ratio>  (5) 
0.0

>  <TOX21_AP1_BLA_Agonist_viability>  (5) 
0.0

>  <TOX21_ARE_BLA_Agonist_ch1>  (5) 
0.0

>  <TOX21_ARE_BLA_Agonist_ch2>  (5) 
0.0

>  <TOX21_ARE_BLA_agonist_viability>  (5) 
0.0

>  <TOX21_AR_BLA_Agonist_ch1>  (5) 
0.0

>  <TOX21_AR_BLA_Agonist_ch2>  (5) 
0.0

>  <TOX21_AR_BLA_Agonist_ratio>  (5) 
0.0

>  <TOX21_AR_BLA_Antagonist_ch1>  (5) 
0.0

>  <TOX21_AR_BLA_Antagonist_ch2>  (5) 
1.0

>  <TOX21_AR_BLA_Antagonist_ratio>  (5) 
1.0

>  <TOX21_AR_BLA_Antagonist_viability>  (5) 
0.0

>  <TOX21_AR_LUC_MDAKB2_Agonist>  (5) 
0.0

>  <TOX21_AR_LUC_MDAKB2_Agonist_3uM_Nilutamide>  (5) 
0.0

>  <TOX21_AR_LUC_MDAKB2_Agonist_3uM_Nilutamide_viability>  (5) 
0.0

>  <TOX21_AR_LUC_MDAKB2_Antagonist_0.5nM_R1881>  (5) 
1.0

>  <TOX21_AR_LUC_MDAKB2_Antagonist_0.5nM_R1881_viability>  (5) 
0.0

>  <TOX21_AR_LUC_MDAKB2_Antagonist_10nM_R1881>  (5) 
1.0

>  <TOX21_AR_LUC_MDAKB2_Antagonist_10nM_R1881_viability>  (5) 
0.0

>  <TOX21_AhR_LUC_Agonist>  (5) 
0.0

>  <TOX21_Aromatase_Inhibition>  (5) 
1.0

>  <TOX21_Aromatase_Inhibition_viability>  (5) 
0.0

>  <TOX21_AutoFluor_HEK293_Cell_blue>  (5) 
0.0

>  <TOX21_AutoFluor_HEK293_Cell_green>  (5) 
0.0

>  <TOX21_AutoFluor_HEK293_Cell_red>  (5) 
0.0

>  <TOX21_AutoFluor_HEK293_Media_blue>  (5) 
0.0

>  <TOX21_AutoFluor_HEK293_Media_green>  (5) 
0.0

>  <TOX21_AutoFluor_HEK293_Media_red>  (5) 
0.0

>  <TOX21_AutoFluor_HEPG2_Cell_blue>  (5) 
0.0

>  <TOX21_AutoFluor_HEPG2_Cell_green>  (5) 
0.0

>  <TOX21_AutoFluor_HEPG2_Cell_red>  (5) 
0.0

>  <TOX21_AutoFluor_HEPG2_Media_blue>  (5) 
0.0

>  <TOX21_AutoFluor_HEPG2_Media_green>  (5) 
0.0

>  <TOX21_AutoFluor_HEPG2_Media_red>  (5) 
0.0

>  <TOX21_CAR_Agonist>  (5) 
0.0

>  <TOX21_CAR_Antagonist>  (5) 
0.0

>  <TOX21_CAR_Antagonist_viability>  (5) 
0.0

>  <TOX21_CASP3_CHO>  (5) 
0.0

>  <TOX21_CASP3_CHO_viability>  (5) 
0.0

>  <TOX21_CASP3_HEPG2>  (5) 
0.0

>  <TOX21_CASP3_HEPG2_viability>  (5) 
0.0

>  <TOX21_DT40>  (5) 
1.0

>  <TOX21_DT40_100>  (5) 
1.0

>  <TOX21_DT40_657>  (5) 
1.0

>  <TOX21_ELG1_LUC_Agonist>  (5) 
0.0

>  <TOX21_ELG1_LUC_Agonist_viability>  (5) 
0.0

>  <TOX21_ERR_Agonist>  (5) 
0.0

>  <TOX21_ERR_Antagonist>  (5) 
0.0

>  <TOX21_ERa_BLA_Agonist_ch1>  (5) 
1.0

>  <TOX21_ERa_BLA_Agonist_ch2>  (5) 
1.0

>  <TOX21_ERa_BLA_Agonist_ratio>  (5) 
1.0

>  <TOX21_ERa_BLA_Antagonist_ch1>  (5) 
0.0

>  <TOX21_ERa_BLA_Antagonist_ch2>  (5) 
0.0

>  <TOX21_ERa_BLA_Antagonist_ratio>  (5) 
0.0

>  <TOX21_ERa_BLA_Antagonist_viability>  (5) 
0.0

>  <TOX21_ERa_LUC_VM7_Agonist>  (5) 
1.0

>  <TOX21_ERa_LUC_VM7_Agonist_10nM_ICI182780>  (5) 
1.0

>  <TOX21_ERa_LUC_VM7_Agonist_10nM_ICI182780_viability>  (5) 
0.0

>  <TOX21_ERa_LUC_VM7_Antagonist_0.1nM_E2>  (5) 
0.0

>  <TOX21_ERa_LUC_VM7_Antagonist_0.1nM_E2_viability>  (5) 
0.0

>  <TOX21_ERa_LUC_VM7_Antagonist_0.5nM_E2>  (5) 
0.0

>  <TOX21_ERa_LUC_VM7_Antagonist_0.5nM_E2_viability>  (5) 
0.0

>  <TOX21_ERb_BLA_Agonist_ch1>  (5) 
0.0

>  <TOX21_ERb_BLA_Agonist_ch2>  (5) 
1.0

>  <TOX21_ERb_BLA_Agonist_ratio>  (5) 
1.0

>  <TOX21_ERb_BLA_Agonist_viability>  (5) 
1.0

>  <TOX21_ERb_BLA_Antagonist_ch1>  (5) 
0.0

>  <TOX21_ERb_BLA_Antagonist_ch2>  (5) 
0.0

>  <TOX21_ERb_BLA_Antagonist_ratio>  (5) 
0.0

>  <TOX21_ERb_BLA_Antagonist_viability>  (5) 
1.0

>  <TOX21_ESRE_BLA_ch1>  (5) 
0.0

>  <TOX21_ESRE_BLA_ch2>  (5) 
0.0

>  <TOX21_ESRE_BLA_ratio>  (5) 
0.0

>  <TOX21_ESRE_BLA_viability>  (5) 
0.0

>  <TOX21_FXR_BLA_Antagonist_ch1>  (5) 
0.0

>  <TOX21_FXR_BLA_Antagonist_ch2>  (5) 
0.0

>  <TOX21_FXR_BLA_agonist_ch1>  (5) 
0.0

>  <TOX21_FXR_BLA_agonist_ch2>  (5) 
0.0

>  <TOX21_FXR_BLA_agonist_ratio>  (5) 
0.0

>  <TOX21_FXR_BLA_agonist_viability>  (5) 
0.0

>  <TOX21_FXR_BLA_antagonist_ratio>  (5) 
0.0

>  <TOX21_FXR_BLA_antagonist_viability>  (5) 
0.0

>  <TOX21_GR_BLA_Agonist_ch1>  (5) 
0.0

>  <TOX21_GR_BLA_Agonist_ch2>  (5) 
0.0

>  <TOX21_GR_BLA_Agonist_ratio>  (5) 
0.0

>  <TOX21_GR_BLA_Antagonist_ch1>  (5) 
0.0

>  <TOX21_GR_BLA_Antagonist_ch2>  (5) 
1.0

>  <TOX21_GR_BLA_Antagonist_ratio>  (5) 
1.0

>  <TOX21_GR_BLA_Antagonist_viability>  (5) 
0.0

>  <TOX21_H2AX_HTRF_CHO_Agonist_ch1>  (5) 
0.0

>  <TOX21_H2AX_HTRF_CHO_Agonist_ch2>  (5) 
0.0

>  <TOX21_H2AX_HTRF_CHO_Agonist_ratio>  (5) 
0.0

>  <TOX21_H2AX_HTRF_CHO_viability>  (5) 
0.0

>  <TOX21_HDAC_Inhibition>  (5) 
0.0

>  <TOX21_HDAC_Inhibition_viability>  (5) 
0.0

>  <TOX21_HRE_BLA_Agonist_ch1>  (5) 
0.0

>  <TOX21_HRE_BLA_Agonist_ch2>  (5) 
0.0

>  <TOX21_HRE_BLA_Agonist_ratio>  (5) 
0.0

>  <TOX21_HRE_BLA_Agonist_viability>  (5) 
0.0

>  <TOX21_HSE_BLA_agonist_ch1>  (5) 
0.0

>  <TOX21_HSE_BLA_agonist_ch2>  (5) 
0.0

>  <TOX21_HSE_BLA_agonist_ratio>  (5) 
0.0

>  <TOX21_HSE_BLA_agonist_viability>  (5) 
0.0

>  <TOX21_LUC_Biochem>  (5) 
0.0

>  <TOX21_MMP_fitc>  (5) 
0.0

>  <TOX21_MMP_ratio_down>  (5) 
0.0

>  <TOX21_MMP_ratio_up>  (5) 
0.0

>  <TOX21_MMP_rhodamine>  (5) 
0.0

>  <TOX21_MMP_viability>  (5) 
0.0

>  <TOX21_NFkB_BLA_agonist_ch1>  (5) 
0.0

>  <TOX21_NFkB_BLA_agonist_ch2>  (5) 
0.0

>  <TOX21_NFkB_BLA_agonist_ratio>  (5) 
0.0

>  <TOX21_NFkB_BLA_agonist_viability>  (5) 
0.0

>  <TOX21_PGC_ERR_Agonist>  (5) 
0.0

>  <TOX21_PGC_ERR_Antagonist>  (5) 
0.0

>  <TOX21_PGC_ERR_viability>  (5) 
0.0

>  <TOX21_PPARd_BLA_Agonist_viability>  (5) 
0.0

>  <TOX21_PPARd_BLA_Antagonist_ch1>  (5) 
0.0

>  <TOX21_PPARd_BLA_Antagonist_ch2>  (5) 
0.0

>  <TOX21_PPARd_BLA_agonist_ch1>  (5) 
0.0

>  <TOX21_PPARd_BLA_agonist_ch2>  (5) 
0.0

>  <TOX21_PPARd_BLA_agonist_ratio>  (5) 
0.0

>  <TOX21_PPARd_BLA_antagonist_ratio>  (5) 
0.0

>  <TOX21_PPARd_BLA_antagonist_viability>  (5) 
0.0

>  <TOX21_PPARg_BLA_Agonist_ch1>  (5) 
0.0

>  <TOX21_PPARg_BLA_Agonist_ch2>  (5) 
0.0

>  <TOX21_PPARg_BLA_Agonist_ratio>  (5) 
0.0

>  <TOX21_PPARg_BLA_Antagonist_ch1>  (5) 
0.0

>  <TOX21_PPARg_BLA_Antagonist_ch2>  (5) 
0.0

>  <TOX21_PPARg_BLA_antagonist_ratio>  (5) 
0.0

>  <TOX21_PPARg_BLA_antagonist_viability>  (5) 
0.0

>  <TOX21_PR_BLA_Agonist_ch1>  (5) 
0.0

>  <TOX21_PR_BLA_Agonist_ch2>  (5) 
1.0

>  <TOX21_PR_BLA_Agonist_ratio>  (5) 
0.0

>  <TOX21_PR_BLA_Antagonist_ch1>  (5) 
1.0

>  <TOX21_PR_BLA_Antagonist_ch2>  (5) 
1.0

>  <TOX21_PR_BLA_Antagonist_ratio>  (5) 
1.0

>  <TOX21_PR_BLA_Antagonist_viability>  (5) 
0.0

>  <TOX21_PR_BLA_Followup_Agonist_ch1>  (5) 
0.0

>  <TOX21_PR_BLA_Followup_Agonist_ch2>  (5) 
0.0

>  <TOX21_PR_BLA_Followup_Agonist_ratio>  (5) 
0.0

>  <TOX21_PR_BLA_Followup_Agonist_viability>  (5) 
0.0

>  <TOX21_PR_BLA_Followup_Antagonist_ch1>  (5) 
0.0

>  <TOX21_PR_BLA_Followup_Antagonist_ch2>  (5) 
0.0

>  <TOX21_PR_BLA_Followup_Antagonist_ratio>  (5) 
1.0

>  <TOX21_PR_BLA_Followup_Antagonist_viability>  (5) 
0.0

>  <TOX21_PR_LUC_Followup_Agonist>  (5) 
0.0

>  <TOX21_PR_LUC_Followup_Agonist_viability>  (5) 
0.0

>  <TOX21_PR_LUC_Followup_Antagonist>  (5) 
1.0

>  <TOX21_PR_LUC_Followup_Antagonist_viability>  (5) 
0.0

>  <TOX21_PXR_Agonist>  (5) 
0.0

>  <TOX21_PXR_viability>  (5) 
0.0

>  <TOX21_RAR_LUC_Agonist>  (5) 
0.0

>  <TOX21_RAR_LUC_Agonist_viability>  (5) 
0.0

>  <TOX21_RAR_LUC_Antagonist_viability>  (5) 
0.0

>  <TOX21_RORg_LUC_CHO_Antagonist>  (5) 
0.0

>  <TOX21_RORg_LUC_CHO_Antagonist_viability>  (5) 
0.0

>  <TOX21_RT_HEK293_FLO_00hr_viability>  (5) 
0.0

>  <TOX21_RT_HEK293_FLO_08hr_viability>  (5) 
0.0

>  <TOX21_RT_HEK293_FLO_16hr_viability>  (5) 
1.0

>  <TOX21_RT_HEK293_FLO_24hr_viability>  (5) 
1.0

>  <TOX21_RT_HEK293_FLO_32hr_viability>  (5) 
0.0

>  <TOX21_RT_HEK293_FLO_40hr_viability>  (5) 
0.0

>  <TOX21_RT_HEK293_GLO_00hr_viability>  (5) 
0.0

>  <TOX21_RT_HEK293_GLO_08hr_viability>  (5) 
0.0

>  <TOX21_RT_HEK293_GLO_16hr_viability>  (5) 
0.0

>  <TOX21_RT_HEK293_GLO_24hr_viability>  (5) 
1.0

>  <TOX21_RT_HEK293_GLO_32hr_viability>  (5) 
1.0

>  <TOX21_RT_HEK293_GLO_40hr_viability>  (5) 
1.0

>  <TOX21_RT_HEPG2_FLO_00hr_ctrl_viability>  (5) 
0.0

>  <TOX21_RT_HEPG2_FLO_08hr_viability>  (5) 
0.0

>  <TOX21_RT_HEPG2_FLO_16hr_ctrl_viability>  (5) 
0.0

>  <TOX21_RT_HEPG2_FLO_24hr_viability>  (5) 
0.0

>  <TOX21_RT_HEPG2_FLO_32hr_ctrl_viability>  (5) 
0.0

>  <TOX21_RT_HEPG2_GLO_00hr_ctrl_viability>  (5) 
0.0

>  <TOX21_RT_HEPG2_GLO_08hr_ctrl_viability>  (5) 
0.0

>  <TOX21_RT_HEPG2_GLO_16hr_ctrl_viability>  (5) 
0.0

>  <TOX21_RT_HEPG2_GLO_24hr_ctrl_viability>  (5) 
0.0

>  <TOX21_RT_HEPG2_GLO_32hr_ctrl_viability>  (5) 
0.0

>  <TOX21_RT_HEPG2_GLO_40hr_viability>  (5) 
0.0

>  <TOX21_RXR_BLA_Agonist_ch1>  (5) 
0.0

>  <TOX21_RXR_BLA_Agonist_ch2>  (5) 
0.0

>  <TOX21_RXR_BLA_Agonist_ratio>  (5) 
0.0

>  <TOX21_RXR_BLA_Agonist_viability>  (5) 
0.0

>  <TOX21_SBE_BLA_Agonist_ch1>  (5) 
0.0

>  <TOX21_SBE_BLA_Agonist_ch2>  (5) 
0.0

>  <TOX21_SBE_BLA_Agonist_ratio>  (5) 
0.0

>  <TOX21_SBE_BLA_Agonist_viability>  (5) 
0.0

>  <TOX21_SBE_BLA_Antagonist_ch1>  (5) 
0.0

>  <TOX21_SBE_BLA_Antagonist_ch2>  (5) 
0.0

>  <TOX21_SBE_BLA_Antagonist_ratio>  (5) 
0.0

>  <TOX21_SBE_BLA_Antagonist_viability>  (5) 
0.0

>  <TOX21_SSH_3T3_GLI3_Agonist>  (5) 
0.0

>  <TOX21_SSH_3T3_GLI3_Agonist_viability>  (5) 
0.0

>  <TOX21_SSH_3T3_GLI3_Antagonist>  (5) 
1.0

>  <TOX21_SSH_3T3_GLI3_Antagonist_viability>  (5) 
0.0

>  <TOX21_TRHR_HEK293_Agonist>  (5) 
0.0

>  <TOX21_TRHR_HEK293_Antagonist>  (5) 
0.0

>  <TOX21_TR_LUC_GH3_Agonist>  (5) 
0.0

>  <TOX21_TR_LUC_GH3_Antagonist>  (5) 
1.0

>  <TOX21_TR_LUC_GH3_Antagonist_viability>  (5) 
0.0

>  <TOX21_TSHR_Agonist_ch2>  (5) 
0.0

>  <TOX21_TSHR_Antagonist_ch2>  (5) 
0.0

>  <TOX21_TSHR_Antagonist_ratio>  (5) 
0.0

>  <TOX21_TSHR_HTRF_Agonist_ch1>  (5) 
0.0

>  <TOX21_TSHR_HTRF_Antagonist_ch1>  (5) 
0.0

>  <TOX21_TSHR_wt_HTRF_ch1>  (5) 
0.0

>  <TOX21_TSHR_wt_ch2>  (5) 
0.0

>  <TOX21_TSHR_wt_ratio>  (5) 
0.0

>  <TOX21_VDR_BLA_Agonist_viability>  (5) 
0.0

>  <TOX21_VDR_BLA_Antagonist_ch1>  (5) 
0.0

>  <TOX21_VDR_BLA_Antagonist_ch2>  (5) 
0.0

>  <TOX21_VDR_BLA_agonist_ch1>  (5) 
0.0

>  <TOX21_VDR_BLA_agonist_ch2>  (5) 
0.0

>  <TOX21_VDR_BLA_agonist_ratio>  (5) 
0.0

>  <TOX21_VDR_BLA_antagonist_ratio>  (5) 
0.0

>  <TOX21_VDR_BLA_antagonist_viability>  (5) 
0.0

>  <TOX21_p53_BLA_p1_ch1>  (5) 
0.0

>  <TOX21_p53_BLA_p1_ch2>  (5) 
0.0

>  <TOX21_p53_BLA_p1_ratio>  (5) 
0.0

>  <TOX21_p53_BLA_p1_viability>  (5) 
0.0

>  <TOX21_p53_BLA_p2_ch1>  (5) 
0.0

>  <TOX21_p53_BLA_p2_ch2>  (5) 
0.0

>  <TOX21_p53_BLA_p2_ratio>  (5) 
0.0

>  <TOX21_p53_BLA_p2_viability>  (5) 
0.0

>  <TOX21_p53_BLA_p3_ch1>  (5) 
0.0

>  <TOX21_p53_BLA_p3_ch2>  (5) 
0.0

>  <TOX21_p53_BLA_p3_ratio>  (5) 
0.0

>  <TOX21_p53_BLA_p4_ch1>  (5) 
0.0

>  <TOX21_p53_BLA_p4_ch2>  (5) 
0.0

>  <TOX21_p53_BLA_p4_ratio>  (5) 
0.0

>  <TOX21_p53_BLA_p4_viability>  (5) 
0.0

>  <TOX21_p53_BLA_p5_ch1>  (5) 
0.0

>  <TOX21_p53_BLA_p5_ch2>  (5) 
0.0

>  <TOX21_p53_BLA_p5_ratio>  (5) 
0.0

>  <TOX21_p53_BLA_p5_viability>  (5) 
0.0

>  <UPITT_HCI_U2OS_AR_TIF2_Nucleoli_Agonist>  (5) 
0.0

>  <UPITT_HCI_U2OS_AR_TIF2_Nucleoli_Antagonist>  (5) 
1.0

>  <UPITT_HCI_U2OS_AR_TIF2_Nucleoli_Cytoplasm_Ratio_Agonist>  (5) 
0.0

>  <UPITT_HCI_U2OS_AR_TIF2_Nucleoli_Cytoplasm_Ratio_Antagonist>  (5) 
0.0

>  <NVS_NR_mERa>  (5) 
1

$$$$

     RDKit          3D

 23 26  0  0  0  0  0  0  0  0999 V2000
    0.0000    0.0000    0.0000 C   0  0  0  0  0  0  0  0  0  0  0  0
    0.0000    0.0000    0.0000 C   0  0  0  0  0  0  0  0  0  0  0  0
    0.0000    0.0000    0.0000 C   0  0  0  0  0  0  0  0  0  0  0  0
    0.0000    0.0000    0.0000 C   0  0  0  0  0  0  0  0  0  0  0  0
    0.0000    0.0000    0.0000 C   0  0  0  0  0  0  0  0  0  0  0  0
    0.0000    0.0000    0.0000 C   0  0  0  0  0  0  0  0  0  0  0  0
    0.0000    0.0000    0.0000 C   0  0  0  0  0  0  0  0  0  0  0  0
    0.0000    0.0000    0.0000 C   0  0  0  0  0  0  0  0  0  0  0  0
    0.0000    0.0000    0.0000 C   0  0  0  0  0  0  0  0  0  0  0  0
    0.0000    0.0000    0.0000 C   0  0  0  0  0  0  0  0  0  0  0  0
    0.0000    0.0000    0.0000 C   0  0  0  0  0  0  0  0  0  0  0  0
    0.0000    0.0000    0.0000 C   0  0  0  0  0  0  0  0  0  0  0  0
    0.0000    0.0000    0.0000 O   0  0  0  0  0  0  0  0  0  0  0  0
    0.0000    0.0000    0.0000 C   0  0  0  0  0  0  0  0  0  0  0  0
    0.0000    0.0000    0.0000 C   0  0  0  0  0  0  0  0  0  0  0  0
    0.0000    0.0000    0.0000 C   0  0  0  0  0  0  0  0  0  0  0  0
    0.0000    0.0000    0.0000 C   0  0  0  0  0  0  0  0  0  0  0  0
    0.0000    0.0000    0.0000 C   0  0  0  0  0  0  0  0  0  0  0  0
    0.0000    0.0000    0.0000 C   0  0  0  0  0  0  0  0  0  0  0  0
    0.0000    0.0000    0.0000 C   0  0  0  0  0  0  0  0  0  0  0  0
    0.0000    0.0000    0.0000 C   0  0  0  0  0  0  0  0  0  0  0  0
    0.0000    0.0000    0.0000 O   0  0  0  0  0  0  0  0  0  0  0  0
    0.0000    0.0000    0.0000 C   0  0  0  0  0  0  0  0  0  0  0  0
  1  2  1  0
  2  3  1  0
  3  4  1  0
  4  5  1  0
  5  6  1  0
  6  7  1  0
  7  8  1  0
  8  9  1  0
  9 10  1  0
 10 11  1  0
 11 12  3  0
 10 13  1  0
  6 14  1  0
 14 15  1  0
 15 16  1  0
 16 17  2  0
 17 18  1  0
 18 19  2  0
 19 20  1  0
 20 21  2  0
 20 22  1  0
 22 23  1  0
  7  2  1  0
 10  2  1  0
 17  5  1  0
 21 16  1  0
M  END
>  <CASRN>  (6) 
72-33-3

>  <Name>  (6) 
Mestranol

>  <Active>  (6) 
3

>  <Inactive>  (6) 
0

>  <Bioactivity>  (6) 
Active

>  <Min LEL>  (6) 
8e-05

>  <Max HDT>  (6) 
nan

>  <Class>  (6) 
1

>  <Code>  (6) 
C72333

>  <NVS_NR_hER>  (6) 
1.0

>  <NVS_NR_cAR>  (6) 
1.0

>  <NVS_NR_hAR>  (6) 
1.0

>  <NVS_NR_hGR>  (6) 
0.0

>  <NVS_NR_hPR>  (6) 
1.0

>  <NVS_NR_rAR>  (6) 
1.0

>  <OT_ER_ERaERb_1440>  (6) 
1.0

>  <OT_FXR_FXRSRC1_0480>  (6) 
1.0

>  <OT_PPARg_PPARgSRC1_1440>  (6) 
0.0

>  <OT_FXR_FXRSRC1_1440>  (6) 
1.0

>  <OT_NURR1_NURR1RXRa_0480>  (6) 
1.0

>  <OT_NURR1_NURR1RXRa_1440>  (6) 
1.0

>  <OT_PPARg_PPARgSRC1_0480>  (6) 
0.0

>  <OT_AR_ARELUC_AG_1440>  (6) 
0.0

>  <OT_ERa_EREGFP_0120>  (6) 
1.0

>  <BSK_3C_HLADR_down>  (6) 
1.0

>  <BSK_3C_Vis_down>  (6) 
1.0

>  <BSK_3C_uPAR_down>  (6) 
0.0

>  <ATG_CAR_TRANS_up>  (6) 
0.0

>  <ATG_E2F_CIS_dn>  (6) 
0.0

>  <ATG_EGR_CIS_up>  (6) 
0.0

>  <ATG_ERa_TRANS_dn>  (6) 
0.0

>  <ATG_ERa_TRANS_up>  (6) 
1.0

>  <ATG_FXR_TRANS_dn>  (6) 
0.0

>  <ATG_GLI_CIS_dn>  (6) 
0.0

>  <ATG_GRE_CIS_up>  (6) 
0.0

>  <ATG_LXRa_TRANS_dn>  (6) 
0.0

>  <ATG_LXRa_TRANS_up>  (6) 
0.0

>  <ATG_NRF1_CIS_up>  (6) 
0.0

>  <ATG_NURR1_TRANS_up>  (6) 
0.0

>  <ATG_Sox_CIS_dn>  (6) 
0.0

>  <ATG_Sox_CIS_up>  (6) 
0.0

>  <ATG_Sp1_CIS_up>  (6) 
0.0

>  <ATG_TGFb_CIS_up>  (6) 
1.0

>  <TOX21_ARE_BLA_agonist_ratio>  (6) 
1.0

>  <TOX21_RAR_LUC_Antagonist>  (6) 
0.0

>  <ATG_LXRb_TRANS_dn>  (6) 
0.0

>  <ATG_CAR_TRANS_dn>  (6) 
0.0

>  <ATG_BRE_CIS_dn>  (6) 
0.0

>  <ATG_E2F_CIS_up>  (6) 
0.0

>  <TOX21_TSHR_Agonist_ratio>  (6) 
1.0

>  <ACEA_ER_80hr>  (6) 
1.0

>  <TOX21_CAR_Agonist_viabillity>  (6) 
0.0

>  <TOX21_PR_BLA_Agonist_viability>  (6) 
0.0

>  <TOX21_RT_HEPG2_FLO_40hr_ctrl_viability>  (6) 
1.0

>  <TOX21_AhR_LUC_Agonist_viability>  (6) 
0.0

>  <TOX21_ERR_viability>  (6) 
0.0

>  <TOX21_p53_BLA_p3_viability>  (6) 
0.0

>  <NVS_NR_bER>  (6) 
1.0

>  <ACEA_AR_agonist_80hr>  (6) 
0.0

>  <ACEA_AR_agonist_AUC_viability>  (6) 
0.0

>  <ACEA_AR_antagonist_80hr>  (6) 
1.0

>  <ACEA_AR_antagonist_AUC_viability>  (6) 
0.0

>  <ACEA_ER_AUC_viability>  (6) 
0.0

>  <ATG_AP_1_CIS_dn>  (6) 
0.0

>  <ATG_AP_1_CIS_up>  (6) 
1.0

>  <ATG_AP_2_CIS_dn>  (6) 
0.0

>  <ATG_AP_2_CIS_up>  (6) 
0.0

>  <ATG_AR_TRANS_dn>  (6) 
0.0

>  <ATG_AR_TRANS_up>  (6) 
0.0

>  <ATG_Ahr_CIS_dn>  (6) 
0.0

>  <ATG_Ahr_CIS_up>  (6) 
0.0

>  <ATG_BRE_CIS_up>  (6) 
0.0

>  <ATG_CMV_CIS_dn>  (6) 
0.0

>  <ATG_CMV_CIS_up>  (6) 
1.0

>  <ATG_CRE_CIS_dn>  (6) 
0.0

>  <ATG_CRE_CIS_up>  (6) 
0.0

>  <ATG_C_EBP_CIS_dn>  (6) 
0.0

>  <ATG_C_EBP_CIS_up>  (6) 
0.0

>  <ATG_DR4_LXR_CIS_dn>  (6) 
0.0

>  <ATG_DR4_LXR_CIS_up>  (6) 
1.0

>  <ATG_DR5_CIS_dn>  (6) 
0.0

>  <ATG_DR5_CIS_up>  (6) 
0.0

>  <ATG_EGR_CIS_dn>  (6) 
0.0

>  <ATG_ERE_CIS_dn>  (6) 
0.0

>  <ATG_ERE_CIS_up>  (6) 
1.0

>  <ATG_ERRa_TRANS_dn>  (6) 
0.0

>  <ATG_ERRa_TRANS_up>  (6) 
0.0

>  <ATG_ERRg_TRANS_dn>  (6) 
0.0

>  <ATG_ERRg_TRANS_up>  (6) 
0.0

>  <ATG_E_Box_CIS_dn>  (6) 
0.0

>  <ATG_E_Box_CIS_up>  (6) 
0.0

>  <ATG_Ets_CIS_dn>  (6) 
0.0

>  <ATG_Ets_CIS_up>  (6) 
0.0

>  <ATG_FXR_TRANS_up>  (6) 
0.0

>  <ATG_FoxA2_CIS_dn>  (6) 
0.0

>  <ATG_FoxA2_CIS_up>  (6) 
0.0

>  <ATG_FoxO_CIS_dn>  (6) 
0.0

>  <ATG_FoxO_CIS_up>  (6) 
0.0

>  <ATG_GAL4_TRANS_dn>  (6) 
0.0

>  <ATG_GAL4_TRANS_up>  (6) 
0.0

>  <ATG_GATA_CIS_dn>  (6) 
0.0

>  <ATG_GATA_CIS_up>  (6) 
0.0

>  <ATG_GLI_CIS_up>  (6) 
0.0

>  <ATG_GRE_CIS_dn>  (6) 
0.0

>  <ATG_GR_TRANS_dn>  (6) 
0.0

>  <ATG_GR_TRANS_up>  (6) 
0.0

>  <ATG_HIF1a_CIS_dn>  (6) 
0.0

>  <ATG_HIF1a_CIS_up>  (6) 
0.0

>  <ATG_HNF4a_TRANS_dn>  (6) 
0.0

>  <ATG_HNF4a_TRANS_up>  (6) 
0.0

>  <ATG_HNF6_CIS_dn>  (6) 
0.0

>  <ATG_HNF6_CIS_up>  (6) 
0.0

>  <ATG_HSE_CIS_dn>  (6) 
0.0

>  <ATG_HSE_CIS_up>  (6) 
0.0

>  <ATG_IR1_CIS_dn>  (6) 
0.0

>  <ATG_IR1_CIS_up>  (6) 
1.0

>  <ATG_ISRE_CIS_dn>  (6) 
0.0

>  <ATG_ISRE_CIS_up>  (6) 
0.0

>  <ATG_LXRb_TRANS_up>  (6) 
0.0

>  <ATG_MRE_CIS_dn>  (6) 
0.0

>  <ATG_MRE_CIS_up>  (6) 
1.0

>  <ATG_M_06_CIS_dn>  (6) 
0.0

>  <ATG_M_06_CIS_up>  (6) 
0.0

>  <ATG_M_06_TRANS_dn>  (6) 
0.0

>  <ATG_M_06_TRANS_up>  (6) 
0.0

>  <ATG_M_19_CIS_dn>  (6) 
0.0

>  <ATG_M_19_CIS_up>  (6) 
0.0

>  <ATG_M_19_TRANS_dn>  (6) 
0.0

>  <ATG_M_19_TRANS_up>  (6) 
0.0

>  <ATG_M_32_CIS_dn>  (6) 
0.0

>  <ATG_M_32_CIS_up>  (6) 
0.0

>  <ATG_M_32_TRANS_dn>  (6) 
0.0

>  <ATG_M_32_TRANS_up>  (6) 
0.0

>  <ATG_M_61_CIS_dn>  (6) 
0.0

>  <ATG_M_61_CIS_up>  (6) 
0.0

>  <ATG_M_61_TRANS_dn>  (6) 
0.0

>  <ATG_M_61_TRANS_up>  (6) 
0.0

>  <ATG_Myb_CIS_dn>  (6) 
0.0

>  <ATG_Myb_CIS_up>  (6) 
0.0

>  <ATG_Myc_CIS_dn>  (6) 
0.0

>  <ATG_Myc_CIS_up>  (6) 
0.0

>  <ATG_NFI_CIS_dn>  (6) 
0.0

>  <ATG_NFI_CIS_up>  (6) 
0.0

>  <ATG_NF_kB_CIS_dn>  (6) 
0.0

>  <ATG_NF_kB_CIS_up>  (6) 
0.0

>  <ATG_NRF1_CIS_dn>  (6) 
0.0

>  <ATG_NRF2_ARE_CIS_dn>  (6) 
0.0

>  <ATG_NRF2_ARE_CIS_up>  (6) 
1.0

>  <ATG_NURR1_TRANS_dn>  (6) 
0.0

>  <ATG_Oct_MLP_CIS_dn>  (6) 
0.0

>  <ATG_Oct_MLP_CIS_up>  (6) 
0.0

>  <ATG_PBREM_CIS_dn>  (6) 
0.0

>  <ATG_PBREM_CIS_up>  (6) 
0.0

>  <ATG_PPARa_TRANS_dn>  (6) 
0.0

>  <ATG_PPARa_TRANS_up>  (6) 
0.0

>  <ATG_PPARd_TRANS_dn>  (6) 
0.0

>  <ATG_PPARd_TRANS_up>  (6) 
0.0

>  <ATG_PPARg_TRANS_dn>  (6) 
0.0

>  <ATG_PPARg_TRANS_up>  (6) 
0.0

>  <ATG_PPRE_CIS_dn>  (6) 
0.0

>  <ATG_PPRE_CIS_up>  (6) 
1.0

>  <ATG_PXRE_CIS_dn>  (6) 
0.0

>  <ATG_PXRE_CIS_up>  (6) 
1.0

>  <ATG_PXR_TRANS_dn>  (6) 
0.0

>  <ATG_PXR_TRANS_up>  (6) 
1.0

>  <ATG_Pax6_CIS_dn>  (6) 
0.0

>  <ATG_Pax6_CIS_up>  (6) 
0.0

>  <ATG_RARa_TRANS_dn>  (6) 
0.0

>  <ATG_RARa_TRANS_up>  (6) 
0.0

>  <ATG_RARb_TRANS_dn>  (6) 
0.0

>  <ATG_RARb_TRANS_up>  (6) 
0.0

>  <ATG_RARg_TRANS_dn>  (6) 
0.0

>  <ATG_RARg_TRANS_up>  (6) 
0.0

>  <ATG_RORE_CIS_dn>  (6) 
0.0

>  <ATG_RORE_CIS_up>  (6) 
0.0

>  <ATG_RORb_TRANS_dn>  (6) 
0.0

>  <ATG_RORb_TRANS_up>  (6) 
0.0

>  <ATG_RORg_TRANS_dn>  (6) 
0.0

>  <ATG_RORg_TRANS_up>  (6) 
0.0

>  <ATG_RXRa_TRANS_dn>  (6) 
0.0

>  <ATG_RXRa_TRANS_up>  (6) 
0.0

>  <ATG_RXRb_TRANS_dn>  (6) 
0.0

>  <ATG_RXRb_TRANS_up>  (6) 
0.0

>  <ATG_SREBP_CIS_dn>  (6) 
0.0

>  <ATG_SREBP_CIS_up>  (6) 
0.0

>  <ATG_STAT3_CIS_dn>  (6) 
0.0

>  <ATG_STAT3_CIS_up>  (6) 
0.0

>  <ATG_Sp1_CIS_dn>  (6) 
0.0

>  <ATG_TAL_CIS_dn>  (6) 
0.0

>  <ATG_TAL_CIS_up>  (6) 
1.0

>  <ATG_TA_CIS_dn>  (6) 
0.0

>  <ATG_TA_CIS_up>  (6) 
0.0

>  <ATG_TCF_b_cat_CIS_dn>  (6) 
0.0

>  <ATG_TCF_b_cat_CIS_up>  (6) 
0.0

>  <ATG_TGFb_CIS_dn>  (6) 
0.0

>  <ATG_THRa1_TRANS_dn>  (6) 
0.0

>  <ATG_THRa1_TRANS_up>  (6) 
0.0

>  <ATG_VDRE_CIS_dn>  (6) 
0.0

>  <ATG_VDRE_CIS_up>  (6) 
1.0

>  <ATG_VDR_TRANS_dn>  (6) 
0.0

>  <ATG_VDR_TRANS_up>  (6) 
0.0

>  <ATG_XTT_Cytotoxicity_up>  (6) 
0.0

>  <ATG_Xbp1_CIS_dn>  (6) 
0.0

>  <ATG_Xbp1_CIS_up>  (6) 
0.0

>  <ATG_p53_CIS_dn>  (6) 
0.0

>  <ATG_p53_CIS_up>  (6) 
0.0

>  <BSK_3C_Eselectin_down>  (6) 
0.0

>  <BSK_3C_Eselectin_up>  (6) 
0.0

>  <BSK_3C_HLADR_up>  (6) 
0.0

>  <BSK_3C_ICAM1_down>  (6) 
0.0

>  <BSK_3C_ICAM1_up>  (6) 
0.0

>  <BSK_3C_IL8_down>  (6) 
1.0

>  <BSK_3C_IL8_up>  (6) 
0.0

>  <BSK_3C_MCP1_down>  (6) 
0.0

>  <BSK_3C_MCP1_up>  (6) 
0.0

>  <BSK_3C_MIG_down>  (6) 
0.0

>  <BSK_3C_MIG_up>  (6) 
0.0

>  <BSK_3C_Proliferation_down>  (6) 
1.0

>  <BSK_3C_Proliferation_up>  (6) 
0.0

>  <BSK_3C_SRB_down>  (6) 
0.0

>  <BSK_3C_SRB_up>  (6) 
0.0

>  <BSK_3C_Thrombomodulin_down>  (6) 
0.0

>  <BSK_3C_Thrombomodulin_up>  (6) 
1.0

>  <BSK_3C_TissueFactor_down>  (6) 
0.0

>  <BSK_3C_TissueFactor_up>  (6) 
0.0

>  <BSK_3C_VCAM1_down>  (6) 
0.0

>  <BSK_3C_VCAM1_up>  (6) 
0.0

>  <BSK_3C_Vis_up>  (6) 
0.0

>  <BSK_3C_uPAR_up>  (6) 
0.0

>  <BSK_4H_Eotaxin3_down>  (6) 
1.0

>  <BSK_4H_Eotaxin3_up>  (6) 
0.0

>  <BSK_4H_MCP1_down>  (6) 
0.0

>  <BSK_4H_MCP1_up>  (6) 
0.0

>  <BSK_4H_Pselectin_down>  (6) 
1.0

>  <BSK_4H_Pselectin_up>  (6) 
0.0

>  <BSK_4H_SRB_down>  (6) 
0.0

>  <BSK_4H_SRB_up>  (6) 
0.0

>  <BSK_4H_VCAM1_down>  (6) 
1.0

>  <BSK_4H_VCAM1_up>  (6) 
0.0

>  <BSK_4H_VEGFRII_down>  (6) 
0.0

>  <BSK_4H_VEGFRII_up>  (6) 
0.0

>  <BSK_4H_uPAR_down>  (6) 
0.0

>  <BSK_4H_uPAR_up>  (6) 
0.0

>  <BSK_BE3C_HLADR_down>  (6) 
1.0

>  <BSK_BE3C_HLADR_up>  (6) 
0.0

>  <BSK_BE3C_IL1a_down>  (6) 
1.0

>  <BSK_BE3C_IL1a_up>  (6) 
0.0

>  <BSK_BE3C_IP10_down>  (6) 
0.0

>  <BSK_BE3C_IP10_up>  (6) 
0.0

>  <BSK_BE3C_MIG_down>  (6) 
0.0

>  <BSK_BE3C_MIG_up>  (6) 
0.0

>  <BSK_BE3C_MMP1_down>  (6) 
0.0

>  <BSK_BE3C_MMP1_up>  (6) 
0.0

>  <BSK_BE3C_PAI1_down>  (6) 
0.0

>  <BSK_BE3C_PAI1_up>  (6) 
0.0

>  <BSK_BE3C_SRB_down>  (6) 
0.0

>  <BSK_BE3C_SRB_up>  (6) 
0.0

>  <BSK_BE3C_TGFb1_down>  (6) 
0.0

>  <BSK_BE3C_TGFb1_up>  (6) 
0.0

>  <BSK_BE3C_tPA_down>  (6) 
0.0

>  <BSK_BE3C_tPA_up>  (6) 
0.0

>  <BSK_BE3C_uPAR_down>  (6) 
0.0

>  <BSK_BE3C_uPAR_up>  (6) 
1.0

>  <BSK_BE3C_uPA_down>  (6) 
0.0

>  <BSK_BE3C_uPA_up>  (6) 
0.0

>  <BSK_CASM3C_HLADR_down>  (6) 
0.0

>  <BSK_CASM3C_HLADR_up>  (6) 
0.0

>  <BSK_CASM3C_IL6_down>  (6) 
0.0

>  <BSK_CASM3C_IL6_up>  (6) 
0.0

>  <BSK_CASM3C_IL8_down>  (6) 
0.0

>  <BSK_CASM3C_IL8_up>  (6) 
0.0

>  <BSK_CASM3C_LDLR_down>  (6) 
0.0

>  <BSK_CASM3C_LDLR_up>  (6) 
0.0

>  <BSK_CASM3C_MCP1_down>  (6) 
0.0

>  <BSK_CASM3C_MCP1_up>  (6) 
0.0

>  <BSK_CASM3C_MCSF_down>  (6) 
0.0

>  <BSK_CASM3C_MCSF_up>  (6) 
1.0

>  <BSK_CASM3C_MIG_down>  (6) 
0.0

>  <BSK_CASM3C_MIG_up>  (6) 
0.0

>  <BSK_CASM3C_Proliferation_down>  (6) 
0.0

>  <BSK_CASM3C_Proliferation_up>  (6) 
1.0

>  <BSK_CASM3C_SAA_down>  (6) 
0.0

>  <BSK_CASM3C_SAA_up>  (6) 
0.0

>  <BSK_CASM3C_SRB_down>  (6) 
0.0

>  <BSK_CASM3C_SRB_up>  (6) 
0.0

>  <BSK_CASM3C_Thrombomodulin_down>  (6) 
0.0

>  <BSK_CASM3C_Thrombomodulin_up>  (6) 
0.0

>  <BSK_CASM3C_TissueFactor_down>  (6) 
1.0

>  <BSK_CASM3C_TissueFactor_up>  (6) 
0.0

>  <BSK_CASM3C_VCAM1_down>  (6) 
0.0

>  <BSK_CASM3C_VCAM1_up>  (6) 
0.0

>  <BSK_CASM3C_uPAR_down>  (6) 
1.0

>  <BSK_CASM3C_uPAR_up>  (6) 
0.0

>  <BSK_KF3CT_ICAM1_down>  (6) 
0.0

>  <BSK_KF3CT_ICAM1_up>  (6) 
0.0

>  <BSK_KF3CT_IL1a_down>  (6) 
1.0

>  <BSK_KF3CT_IL1a_up>  (6) 
0.0

>  <BSK_KF3CT_IP10_down>  (6) 
0.0

>  <BSK_KF3CT_IP10_up>  (6) 
0.0

>  <BSK_KF3CT_MCP1_down>  (6) 
0.0

>  <BSK_KF3CT_MCP1_up>  (6) 
0.0

>  <BSK_KF3CT_MMP9_down>  (6) 
1.0

>  <BSK_KF3CT_MMP9_up>  (6) 
0.0

>  <BSK_KF3CT_SRB_down>  (6) 
0.0

>  <BSK_KF3CT_SRB_up>  (6) 
0.0

>  <BSK_KF3CT_TGFb1_down>  (6) 
1.0

>  <BSK_KF3CT_TGFb1_up>  (6) 
0.0

>  <BSK_KF3CT_TIMP2_down>  (6) 
1.0

>  <BSK_KF3CT_TIMP2_up>  (6) 
0.0

>  <BSK_KF3CT_uPA_down>  (6) 
1.0

>  <BSK_KF3CT_uPA_up>  (6) 
0.0

>  <BSK_LPS_CD40_down>  (6) 
1.0

>  <BSK_LPS_CD40_up>  (6) 
0.0

>  <BSK_LPS_Eselectin_down>  (6) 
0.0

>  <BSK_LPS_Eselectin_up>  (6) 
0.0

>  <BSK_LPS_IL1a_down>  (6) 
1.0

>  <BSK_LPS_IL1a_up>  (6) 
0.0

>  <BSK_LPS_IL8_down>  (6) 
1.0

>  <BSK_LPS_IL8_up>  (6) 
0.0

>  <BSK_LPS_MCP1_down>  (6) 
1.0

>  <BSK_LPS_MCP1_up>  (6) 
0.0

>  <BSK_LPS_MCSF_down>  (6) 
0.0

>  <BSK_LPS_MCSF_up>  (6) 
0.0

>  <BSK_LPS_PGE2_down>  (6) 
0.0

>  <BSK_LPS_PGE2_up>  (6) 
0.0

>  <BSK_LPS_SRB_down>  (6) 
0.0

>  <BSK_LPS_SRB_up>  (6) 
0.0

>  <BSK_LPS_TNFa_down>  (6) 
1.0

>  <BSK_LPS_TNFa_up>  (6) 
0.0

>  <BSK_LPS_TissueFactor_down>  (6) 
0.0

>  <BSK_LPS_TissueFactor_up>  (6) 
0.0

>  <BSK_LPS_VCAM1_down>  (6) 
1.0

>  <BSK_LPS_VCAM1_up>  (6) 
0.0

>  <BSK_SAg_CD38_down>  (6) 
1.0

>  <BSK_SAg_CD38_up>  (6) 
0.0

>  <BSK_SAg_CD40_down>  (6) 
1.0

>  <BSK_SAg_CD40_up>  (6) 
0.0

>  <BSK_SAg_CD69_down>  (6) 
1.0

>  <BSK_SAg_CD69_up>  (6) 
0.0

>  <BSK_SAg_Eselectin_down>  (6) 
0.0

>  <BSK_SAg_Eselectin_up>  (6) 
0.0

>  <BSK_SAg_IL8_down>  (6) 
1.0

>  <BSK_SAg_IL8_up>  (6) 
0.0

>  <BSK_SAg_MCP1_down>  (6) 
0.0

>  <BSK_SAg_MCP1_up>  (6) 
0.0

>  <BSK_SAg_MIG_down>  (6) 
0.0

>  <BSK_SAg_MIG_up>  (6) 
0.0

>  <BSK_SAg_PBMCCytotoxicity_down>  (6) 
1.0

>  <BSK_SAg_PBMCCytotoxicity_up>  (6) 
0.0

>  <BSK_SAg_Proliferation_down>  (6) 
1.0

>  <BSK_SAg_Proliferation_up>  (6) 
0.0

>  <BSK_SAg_SRB_down>  (6) 
0.0

>  <BSK_SAg_SRB_up>  (6) 
0.0

>  <BSK_hDFCGF_CollagenIII_down>  (6) 
1.0

>  <BSK_hDFCGF_CollagenIII_up>  (6) 
0.0

>  <BSK_hDFCGF_EGFR_down>  (6) 
1.0

>  <BSK_hDFCGF_EGFR_up>  (6) 
0.0

>  <BSK_hDFCGF_IL8_down>  (6) 
0.0

>  <BSK_hDFCGF_IL8_up>  (6) 
0.0

>  <BSK_hDFCGF_IP10_down>  (6) 
0.0

>  <BSK_hDFCGF_IP10_up>  (6) 
0.0

>  <BSK_hDFCGF_MCSF_down>  (6) 
0.0

>  <BSK_hDFCGF_MCSF_up>  (6) 
0.0

>  <BSK_hDFCGF_MIG_down>  (6) 
0.0

>  <BSK_hDFCGF_MIG_up>  (6) 
0.0

>  <BSK_hDFCGF_MMP1_down>  (6) 
0.0

>  <BSK_hDFCGF_MMP1_up>  (6) 
0.0

>  <BSK_hDFCGF_PAI1_down>  (6) 
1.0

>  <BSK_hDFCGF_PAI1_up>  (6) 
0.0

>  <BSK_hDFCGF_Proliferation_down>  (6) 
1.0

>  <BSK_hDFCGF_Proliferation_up>  (6) 
0.0

>  <BSK_hDFCGF_SRB_down>  (6) 
0.0

>  <BSK_hDFCGF_SRB_up>  (6) 
0.0

>  <BSK_hDFCGF_TIMP1_down>  (6) 
0.0

>  <BSK_hDFCGF_TIMP1_up>  (6) 
0.0

>  <BSK_hDFCGF_VCAM1_down>  (6) 
0.0

>  <BSK_hDFCGF_VCAM1_up>  (6) 
0.0

>  <CEETOX_H295R_11DCORT_dn>  (6) 
0.0

>  <CEETOX_H295R_11DCORT_up>  (6) 
0.0

>  <CEETOX_H295R_ANDR_dn>  (6) 
0.0

>  <CEETOX_H295R_ANDR_up>  (6) 
0.0

>  <CEETOX_H295R_CORTIC_dn>  (6) 
0.0

>  <CEETOX_H295R_CORTIC_up>  (6) 
0.0

>  <CEETOX_H295R_CORTISOL_dn>  (6) 
0.0

>  <CEETOX_H295R_CORTISOL_up>  (6) 
0.0

>  <CEETOX_H295R_DOC_dn>  (6) 
0.0

>  <CEETOX_H295R_DOC_up>  (6) 
0.0

>  <CEETOX_H295R_ESTRADIOL_dn>  (6) 
0.0

>  <CEETOX_H295R_ESTRADIOL_up>  (6) 
0.0

>  <CEETOX_H295R_ESTRONE_dn>  (6) 
0.0

>  <CEETOX_H295R_ESTRONE_up>  (6) 
0.0

>  <CEETOX_H295R_MTT_cell_viability_dn>  (6) 
1.0

>  <CEETOX_H295R_MTT_cell_viability_up>  (6) 
0.0

>  <CEETOX_H295R_OHPREG_dn>  (6) 
0.0

>  <CEETOX_H295R_OHPREG_up>  (6) 
0.0

>  <CEETOX_H295R_OHPROG_dn>  (6) 
1.0

>  <CEETOX_H295R_OHPROG_up>  (6) 
0.0

>  <CEETOX_H295R_PROG_dn>  (6) 
1.0

>  <CEETOX_H295R_PROG_up>  (6) 
0.0

>  <CEETOX_H295R_TESTO_dn>  (6) 
0.0

>  <CEETOX_H295R_TESTO_up>  (6) 
0.0

>  <NVS_ADME_hCYP2C19>  (6) 
0.0

>  <NVS_ADME_hCYP2C19_Activator>  (6) 
0.0

>  <NVS_GPCR_hOpiate_mu>  (6) 
0.0

>  <NVS_GPCR_rTRH>  (6) 
0.0

>  <NVS_IC_rNaCh_site2>  (6) 
0.0

>  <NVS_MP_hPBR>  (6) 
0.0

>  <NVS_NR_rMR>  (6) 
0.0

>  <NVS_TR_hNET>  (6) 
1.0

>  <NVS_TR_rSERT>  (6) 
1.0

>  <OT_AR_ARSRC1_0480>  (6) 
0.0

>  <OT_AR_ARSRC1_0960>  (6) 
0.0

>  <OT_ER_ERaERa_0480>  (6) 
1.0

>  <OT_ER_ERaERa_1440>  (6) 
1.0

>  <OT_ER_ERaERb_0480>  (6) 
1.0

>  <OT_ER_ERbERb_0480>  (6) 
1.0

>  <OT_ER_ERbERb_1440>  (6) 
1.0

>  <OT_ERa_EREGFP_0480>  (6) 
1.0

>  <TOX21_AP1_BLA_Agonist_ch1>  (6) 
1.0

>  <TOX21_AP1_BLA_Agonist_ch2>  (6) 
1.0

>  <TOX21_AP1_BLA_Agonist_ratio>  (6) 
1.0

>  <TOX21_AP1_BLA_Agonist_viability>  (6) 
0.0

>  <TOX21_ARE_BLA_Agonist_ch1>  (6) 
0.0

>  <TOX21_ARE_BLA_Agonist_ch2>  (6) 
1.0

>  <TOX21_ARE_BLA_agonist_viability>  (6) 
0.0

>  <TOX21_AR_BLA_Agonist_ch1>  (6) 
0.0

>  <TOX21_AR_BLA_Agonist_ch2>  (6) 
0.0

>  <TOX21_AR_BLA_Agonist_ratio>  (6) 
0.0

>  <TOX21_AR_BLA_Antagonist_ch1>  (6) 
0.0

>  <TOX21_AR_BLA_Antagonist_ch2>  (6) 
1.0

>  <TOX21_AR_BLA_Antagonist_ratio>  (6) 
1.0

>  <TOX21_AR_BLA_Antagonist_viability>  (6) 
0.0

>  <TOX21_AR_LUC_MDAKB2_Agonist>  (6) 
0.0

>  <TOX21_AR_LUC_MDAKB2_Agonist_3uM_Nilutamide>  (6) 
0.0

>  <TOX21_AR_LUC_MDAKB2_Agonist_3uM_Nilutamide_viability>  (6) 
0.0

>  <TOX21_AR_LUC_MDAKB2_Antagonist_0.5nM_R1881>  (6) 
1.0

>  <TOX21_AR_LUC_MDAKB2_Antagonist_0.5nM_R1881_viability>  (6) 
0.0

>  <TOX21_AR_LUC_MDAKB2_Antagonist_10nM_R1881>  (6) 
0.0

>  <TOX21_AR_LUC_MDAKB2_Antagonist_10nM_R1881_viability>  (6) 
0.0

>  <TOX21_AhR_LUC_Agonist>  (6) 
0.0

>  <TOX21_Aromatase_Inhibition>  (6) 
0.0

>  <TOX21_Aromatase_Inhibition_viability>  (6) 
0.0

>  <TOX21_AutoFluor_HEK293_Cell_blue>  (6) 
0.0

>  <TOX21_AutoFluor_HEK293_Cell_green>  (6) 
0.0

>  <TOX21_AutoFluor_HEK293_Cell_red>  (6) 
0.0

>  <TOX21_AutoFluor_HEK293_Media_blue>  (6) 
0.0

>  <TOX21_AutoFluor_HEK293_Media_green>  (6) 
0.0

>  <TOX21_AutoFluor_HEK293_Media_red>  (6) 
0.0

>  <TOX21_AutoFluor_HEPG2_Cell_blue>  (6) 
0.0

>  <TOX21_AutoFluor_HEPG2_Cell_green>  (6) 
0.0

>  <TOX21_AutoFluor_HEPG2_Cell_red>  (6) 
0.0

>  <TOX21_AutoFluor_HEPG2_Media_blue>  (6) 
0.0

>  <TOX21_AutoFluor_HEPG2_Media_green>  (6) 
0.0

>  <TOX21_AutoFluor_HEPG2_Media_red>  (6) 
0.0

>  <TOX21_CAR_Agonist>  (6) 
1.0

>  <TOX21_CAR_Antagonist>  (6) 
0.0

>  <TOX21_CAR_Antagonist_viability>  (6) 
0.0

>  <TOX21_CASP3_CHO>  (6) 
0.0

>  <TOX21_CASP3_CHO_viability>  (6) 
1.0

>  <TOX21_CASP3_HEPG2>  (6) 
0.0

>  <TOX21_CASP3_HEPG2_viability>  (6) 
0.0

>  <TOX21_DT40>  (6) 
1.0

>  <TOX21_DT40_100>  (6) 
1.0

>  <TOX21_DT40_657>  (6) 
1.0

>  <TOX21_ELG1_LUC_Agonist>  (6) 
0.0

>  <TOX21_ELG1_LUC_Agonist_viability>  (6) 
0.0

>  <TOX21_ERR_Agonist>  (6) 
0.0

>  <TOX21_ERR_Antagonist>  (6) 
1.0

>  <TOX21_ERa_BLA_Agonist_ch1>  (6) 
1.0

>  <TOX21_ERa_BLA_Agonist_ch2>  (6) 
1.0

>  <TOX21_ERa_BLA_Agonist_ratio>  (6) 
1.0

>  <TOX21_ERa_BLA_Antagonist_ch1>  (6) 
0.0

>  <TOX21_ERa_BLA_Antagonist_ch2>  (6) 
0.0

>  <TOX21_ERa_BLA_Antagonist_ratio>  (6) 
0.0

>  <TOX21_ERa_BLA_Antagonist_viability>  (6) 
0.0

>  <TOX21_ERa_LUC_VM7_Agonist>  (6) 
1.0

>  <TOX21_ERa_LUC_VM7_Agonist_10nM_ICI182780>  (6) 
1.0

>  <TOX21_ERa_LUC_VM7_Agonist_10nM_ICI182780_viability>  (6) 
0.0

>  <TOX21_ERa_LUC_VM7_Antagonist_0.1nM_E2>  (6) 
0.0

>  <TOX21_ERa_LUC_VM7_Antagonist_0.1nM_E2_viability>  (6) 
0.0

>  <TOX21_ERa_LUC_VM7_Antagonist_0.5nM_E2>  (6) 
0.0

>  <TOX21_ERa_LUC_VM7_Antagonist_0.5nM_E2_viability>  (6) 
0.0

>  <TOX21_ERb_BLA_Agonist_ch1>  (6) 
0.0

>  <TOX21_ERb_BLA_Agonist_ch2>  (6) 
1.0

>  <TOX21_ERb_BLA_Agonist_ratio>  (6) 
1.0

>  <TOX21_ERb_BLA_Agonist_viability>  (6) 
1.0

>  <TOX21_ERb_BLA_Antagonist_ch1>  (6) 
0.0

>  <TOX21_ERb_BLA_Antagonist_ch2>  (6) 
0.0

>  <TOX21_ERb_BLA_Antagonist_ratio>  (6) 
0.0

>  <TOX21_ERb_BLA_Antagonist_viability>  (6) 
1.0

>  <TOX21_ESRE_BLA_ch1>  (6) 
0.0

>  <TOX21_ESRE_BLA_ch2>  (6) 
0.0

>  <TOX21_ESRE_BLA_ratio>  (6) 
0.0

>  <TOX21_ESRE_BLA_viability>  (6) 
0.0

>  <TOX21_FXR_BLA_Antagonist_ch1>  (6) 
0.0

>  <TOX21_FXR_BLA_Antagonist_ch2>  (6) 
0.0

>  <TOX21_FXR_BLA_agonist_ch1>  (6) 
0.0

>  <TOX21_FXR_BLA_agonist_ch2>  (6) 
0.0

>  <TOX21_FXR_BLA_agonist_ratio>  (6) 
0.0

>  <TOX21_FXR_BLA_agonist_viability>  (6) 
0.0

>  <TOX21_FXR_BLA_antagonist_ratio>  (6) 
0.0

>  <TOX21_FXR_BLA_antagonist_viability>  (6) 
0.0

>  <TOX21_GR_BLA_Agonist_ch1>  (6) 
0.0

>  <TOX21_GR_BLA_Agonist_ch2>  (6) 
0.0

>  <TOX21_GR_BLA_Agonist_ratio>  (6) 
0.0

>  <TOX21_GR_BLA_Antagonist_ch1>  (6) 
0.0

>  <TOX21_GR_BLA_Antagonist_ch2>  (6) 
0.0

>  <TOX21_GR_BLA_Antagonist_ratio>  (6) 
0.0

>  <TOX21_GR_BLA_Antagonist_viability>  (6) 
0.0

>  <TOX21_H2AX_HTRF_CHO_Agonist_ch1>  (6) 
0.0

>  <TOX21_H2AX_HTRF_CHO_Agonist_ch2>  (6) 
0.0

>  <TOX21_H2AX_HTRF_CHO_Agonist_ratio>  (6) 
0.0

>  <TOX21_H2AX_HTRF_CHO_viability>  (6) 
1.0

>  <TOX21_HDAC_Inhibition>  (6) 
0.0

>  <TOX21_HDAC_Inhibition_viability>  (6) 
0.0

>  <TOX21_HRE_BLA_Agonist_ch1>  (6) 
0.0

>  <TOX21_HRE_BLA_Agonist_ch2>  (6) 
0.0

>  <TOX21_HRE_BLA_Agonist_ratio>  (6) 
0.0

>  <TOX21_HRE_BLA_Agonist_viability>  (6) 
1.0

>  <TOX21_HSE_BLA_agonist_ch1>  (6) 
0.0

>  <TOX21_HSE_BLA_agonist_ch2>  (6) 
0.0

>  <TOX21_HSE_BLA_agonist_ratio>  (6) 
0.0

>  <TOX21_HSE_BLA_agonist_viability>  (6) 
0.0

>  <TOX21_LUC_Biochem>  (6) 
0.0

>  <TOX21_MMP_fitc>  (6) 
0.0

>  <TOX21_MMP_ratio_down>  (6) 
1.0

>  <TOX21_MMP_ratio_up>  (6) 
0.0

>  <TOX21_MMP_rhodamine>  (6) 
1.0

>  <TOX21_MMP_viability>  (6) 
1.0

>  <TOX21_NFkB_BLA_agonist_ch1>  (6) 
0.0

>  <TOX21_NFkB_BLA_agonist_ch2>  (6) 
0.0

>  <TOX21_NFkB_BLA_agonist_ratio>  (6) 
0.0

>  <TOX21_NFkB_BLA_agonist_viability>  (6) 
0.0

>  <TOX21_PGC_ERR_Agonist>  (6) 
1.0

>  <TOX21_PGC_ERR_Antagonist>  (6) 
0.0

>  <TOX21_PGC_ERR_viability>  (6) 
0.0

>  <TOX21_PPARd_BLA_Agonist_viability>  (6) 
1.0

>  <TOX21_PPARd_BLA_Antagonist_ch1>  (6) 
0.0

>  <TOX21_PPARd_BLA_Antagonist_ch2>  (6) 
0.0

>  <TOX21_PPARd_BLA_agonist_ch1>  (6) 
0.0

>  <TOX21_PPARd_BLA_agonist_ch2>  (6) 
0.0

>  <TOX21_PPARd_BLA_agonist_ratio>  (6) 
0.0

>  <TOX21_PPARd_BLA_antagonist_ratio>  (6) 
0.0

>  <TOX21_PPARd_BLA_antagonist_viability>  (6) 
0.0

>  <TOX21_PPARg_BLA_Agonist_ch1>  (6) 
0.0

>  <TOX21_PPARg_BLA_Agonist_ch2>  (6) 
0.0

>  <TOX21_PPARg_BLA_Agonist_ratio>  (6) 
0.0

>  <TOX21_PPARg_BLA_Antagonist_ch1>  (6) 
0.0

>  <TOX21_PPARg_BLA_Antagonist_ch2>  (6) 
0.0

>  <TOX21_PPARg_BLA_antagonist_ratio>  (6) 
0.0

>  <TOX21_PPARg_BLA_antagonist_viability>  (6) 
0.0

>  <TOX21_PR_BLA_Agonist_ch1>  (6) 
1.0

>  <TOX21_PR_BLA_Agonist_ch2>  (6) 
1.0

>  <TOX21_PR_BLA_Agonist_ratio>  (6) 
1.0

>  <TOX21_PR_BLA_Antagonist_ch1>  (6) 
1.0

>  <TOX21_PR_BLA_Antagonist_ch2>  (6) 
0.0

>  <TOX21_PR_BLA_Antagonist_ratio>  (6) 
1.0

>  <TOX21_PR_BLA_Antagonist_viability>  (6) 
0.0

>  <TOX21_PR_BLA_Followup_Agonist_ch1>  (6) 
0.0

>  <TOX21_PR_BLA_Followup_Agonist_ch2>  (6) 
1.0

>  <TOX21_PR_BLA_Followup_Agonist_ratio>  (6) 
1.0

>  <TOX21_PR_BLA_Followup_Agonist_viability>  (6) 
0.0

>  <TOX21_PR_BLA_Followup_Antagonist_ch1>  (6) 
0.0

>  <TOX21_PR_BLA_Followup_Antagonist_ch2>  (6) 
0.0

>  <TOX21_PR_BLA_Followup_Antagonist_ratio>  (6) 
1.0

>  <TOX21_PR_BLA_Followup_Antagonist_viability>  (6) 
0.0

>  <TOX21_PR_LUC_Followup_Agonist>  (6) 
1.0

>  <TOX21_PR_LUC_Followup_Agonist_viability>  (6) 
0.0

>  <TOX21_PR_LUC_Followup_Antagonist>  (6) 
0.0

>  <TOX21_PR_LUC_Followup_Antagonist_viability>  (6) 
0.0

>  <TOX21_PXR_Agonist>  (6) 
0.0

>  <TOX21_PXR_viability>  (6) 
1.0

>  <TOX21_RAR_LUC_Agonist>  (6) 
0.0

>  <TOX21_RAR_LUC_Agonist_viability>  (6) 
0.0

>  <TOX21_RAR_LUC_Antagonist_viability>  (6) 
0.0

>  <TOX21_RORg_LUC_CHO_Antagonist>  (6) 
0.0

>  <TOX21_RORg_LUC_CHO_Antagonist_viability>  (6) 
0.0

>  <TOX21_RT_HEK293_FLO_00hr_viability>  (6) 
0.0

>  <TOX21_RT_HEK293_FLO_08hr_viability>  (6) 
0.0

>  <TOX21_RT_HEK293_FLO_16hr_viability>  (6) 
1.0

>  <TOX21_RT_HEK293_FLO_24hr_viability>  (6) 
1.0

>  <TOX21_RT_HEK293_FLO_32hr_viability>  (6) 
1.0

>  <TOX21_RT_HEK293_FLO_40hr_viability>  (6) 
1.0

>  <TOX21_RT_HEK293_GLO_00hr_viability>  (6) 
0.0

>  <TOX21_RT_HEK293_GLO_08hr_viability>  (6) 
1.0

>  <TOX21_RT_HEK293_GLO_16hr_viability>  (6) 
1.0

>  <TOX21_RT_HEK293_GLO_24hr_viability>  (6) 
1.0

>  <TOX21_RT_HEK293_GLO_32hr_viability>  (6) 
1.0

>  <TOX21_RT_HEK293_GLO_40hr_viability>  (6) 
1.0

>  <TOX21_RT_HEPG2_FLO_00hr_ctrl_viability>  (6) 
1.0

>  <TOX21_RT_HEPG2_FLO_08hr_viability>  (6) 
0.0

>  <TOX21_RT_HEPG2_FLO_16hr_ctrl_viability>  (6) 
0.0

>  <TOX21_RT_HEPG2_FLO_24hr_viability>  (6) 
1.0

>  <TOX21_RT_HEPG2_FLO_32hr_ctrl_viability>  (6) 
1.0

>  <TOX21_RT_HEPG2_GLO_00hr_ctrl_viability>  (6) 
0.0

>  <TOX21_RT_HEPG2_GLO_08hr_ctrl_viability>  (6) 
0.0

>  <TOX21_RT_HEPG2_GLO_16hr_ctrl_viability>  (6) 
0.0

>  <TOX21_RT_HEPG2_GLO_24hr_ctrl_viability>  (6) 
0.0

>  <TOX21_RT_HEPG2_GLO_32hr_ctrl_viability>  (6) 
0.0

>  <TOX21_RT_HEPG2_GLO_40hr_viability>  (6) 
0.0

>  <TOX21_RXR_BLA_Agonist_ch1>  (6) 
0.0

>  <TOX21_RXR_BLA_Agonist_ch2>  (6) 
0.0

>  <TOX21_RXR_BLA_Agonist_ratio>  (6) 
0.0

>  <TOX21_RXR_BLA_Agonist_viability>  (6) 
1.0

>  <TOX21_SBE_BLA_Agonist_ch1>  (6) 
0.0

>  <TOX21_SBE_BLA_Agonist_ch2>  (6) 
0.0

>  <TOX21_SBE_BLA_Agonist_ratio>  (6) 
0.0

>  <TOX21_SBE_BLA_Agonist_viability>  (6) 
0.0

>  <TOX21_SBE_BLA_Antagonist_ch1>  (6) 
0.0

>  <TOX21_SBE_BLA_Antagonist_ch2>  (6) 
0.0

>  <TOX21_SBE_BLA_Antagonist_ratio>  (6) 
1.0

>  <TOX21_SBE_BLA_Antagonist_viability>  (6) 
0.0

>  <TOX21_SSH_3T3_GLI3_Agonist>  (6) 
0.0

>  <TOX21_SSH_3T3_GLI3_Agonist_viability>  (6) 
0.0

>  <TOX21_SSH_3T3_GLI3_Antagonist>  (6) 
0.0

>  <TOX21_SSH_3T3_GLI3_Antagonist_viability>  (6) 
0.0

>  <TOX21_TRHR_HEK293_Agonist>  (6) 
0.0

>  <TOX21_TRHR_HEK293_Antagonist>  (6) 
0.0

>  <TOX21_TR_LUC_GH3_Agonist>  (6) 
0.0

>  <TOX21_TR_LUC_GH3_Antagonist>  (6) 
1.0

>  <TOX21_TR_LUC_GH3_Antagonist_viability>  (6) 
0.0

>  <TOX21_TSHR_Agonist_ch2>  (6) 
0.0

>  <TOX21_TSHR_Antagonist_ch2>  (6) 
0.0

>  <TOX21_TSHR_Antagonist_ratio>  (6) 
0.0

>  <TOX21_TSHR_HTRF_Agonist_ch1>  (6) 
1.0

>  <TOX21_TSHR_HTRF_Antagonist_ch1>  (6) 
0.0

>  <TOX21_TSHR_wt_HTRF_ch1>  (6) 
0.0

>  <TOX21_TSHR_wt_ch2>  (6) 
0.0

>  <TOX21_TSHR_wt_ratio>  (6) 
0.0

>  <TOX21_VDR_BLA_Agonist_viability>  (6) 
0.0

>  <TOX21_VDR_BLA_Antagonist_ch1>  (6) 
0.0

>  <TOX21_VDR_BLA_Antagonist_ch2>  (6) 
0.0

>  <TOX21_VDR_BLA_agonist_ch1>  (6) 
0.0

>  <TOX21_VDR_BLA_agonist_ch2>  (6) 
0.0

>  <TOX21_VDR_BLA_agonist_ratio>  (6) 
0.0

>  <TOX21_VDR_BLA_antagonist_ratio>  (6) 
0.0

>  <TOX21_VDR_BLA_antagonist_viability>  (6) 
0.0

>  <TOX21_p53_BLA_p1_ch1>  (6) 
0.0

>  <TOX21_p53_BLA_p1_ch2>  (6) 
0.0

>  <TOX21_p53_BLA_p1_ratio>  (6) 
0.0

>  <TOX21_p53_BLA_p1_viability>  (6) 
0.0

>  <TOX21_p53_BLA_p2_ch1>  (6) 
0.0

>  <TOX21_p53_BLA_p2_ch2>  (6) 
0.0

>  <TOX21_p53_BLA_p2_ratio>  (6) 
0.0

>  <TOX21_p53_BLA_p2_viability>  (6) 
0.0

>  <TOX21_p53_BLA_p3_ch1>  (6) 
0.0

>  <TOX21_p53_BLA_p3_ch2>  (6) 
0.0

>  <TOX21_p53_BLA_p3_ratio>  (6) 
0.0

>  <TOX21_p53_BLA_p4_ch1>  (6) 
0.0

>  <TOX21_p53_BLA_p4_ch2>  (6) 
0.0

>  <TOX21_p53_BLA_p4_ratio>  (6) 
0.0

>  <TOX21_p53_BLA_p4_viability>  (6) 
0.0

>  <TOX21_p53_BLA_p5_ch1>  (6) 
0.0

>  <TOX21_p53_BLA_p5_ch2>  (6) 
0.0

>  <TOX21_p53_BLA_p5_ratio>  (6) 
0.0

>  <TOX21_p53_BLA_p5_viability>  (6) 
0.0

>  <UPITT_HCI_U2OS_AR_TIF2_Nucleoli_Agonist>  (6) 
0.0

>  <UPITT_HCI_U2OS_AR_TIF2_Nucleoli_Antagonist>  (6) 
1.0

>  <UPITT_HCI_U2OS_AR_TIF2_Nucleoli_Cytoplasm_Ratio_Agonist>  (6) 
0.0

>  <UPITT_HCI_U2OS_AR_TIF2_Nucleoli_Cytoplasm_Ratio_Antagonist>  (6) 
1.0

>  <NVS_NR_mERa>  (6) 
0

$$$$

     RDKit          3D

 23 24  0  0  0  0  0  0  0  0999 V2000
    0.0000    0.0000    0.0000 C   0  0  0  0  0  0  0  0  0  0  0  0
    0.0000    0.0000    0.0000 C   0  0  0  0  0  0  0  0  0  0  0  0
    0.0000    0.0000    0.0000 C   0  0  0  0  0  0  0  0  0  0  0  0
    0.0000    0.0000    0.0000 C   0  0  0  0  0  0  0  0  0  0  0  0
    0.0000    0.0000    0.0000 C   0  0  0  0  0  0  0  0  0  0  0  0
    0.0000    0.0000    0.0000 C   0  0  0  0  0  0  0  0  0  0  0  0
    0.0000    0.0000    0.0000 O   0  0  0  0  0  0  0  0  0  0  0  0
    0.0000    0.0000    0.0000 C   0  0  0  0  0  0  0  0  0  0  0  0
    0.0000    0.0000    0.0000 C   0  0  0  0  0  0  0  0  0  0  0  0
    0.0000    0.0000    0.0000 C   0  0  0  0  0  0  0  0  0  0  0  0
    0.0000    0.0000    0.0000 C   0  0  0  0  0  0  0  0  0  0  0  0
    0.0000    0.0000    0.0000 C   0  0  0  0  0  0  0  0  0  0  0  0
    0.0000    0.0000    0.0000 C   0  0  0  0  0  0  0  0  0  0  0  0
    0.0000    0.0000    0.0000 C   0  0  0  0  0  0  0  0  0  0  0  0
    0.0000    0.0000    0.0000 C   0  0  0  0  0  0  0  0  0  0  0  0
    0.0000    0.0000    0.0000 C   0  0  0  0  0  0  0  0  0  0  0  0
    0.0000    0.0000    0.0000 C   0  0  0  0  0  0  0  0  0  0  0  0
    0.0000    0.0000    0.0000 C   0  0  0  0  0  0  0  0  0  0  0  0
    0.0000    0.0000    0.0000 C   0  0  0  0  0  0  0  0  0  0  0  0
    0.0000    0.0000    0.0000 O   0  0  0  0  0  0  0  0  0  0  0  0
    0.0000    0.0000    0.0000 O   0  0  0  0  0  0  0  0  0  0  0  0
    0.0000    0.0000    0.0000 O   0  0  0  0  0  0  0  0  0  0  0  0
    0.0000    0.0000    0.0000 O   0  0  0  0  0  0  0  0  0  0  0  0
  1  2  1  0
  2  3  1  0
  3  4  1  0
  4  5  1  0
  5  6  1  0
  6  7  2  0
  6  8  1  0
  8  9  1  0
  9 10  1  0
 10 11  1  0
 11 12  2  0
 12 13  1  0
 13 14  2  0
 14 15  1  0
 15 16  2  0
 16 17  1  0
 17 18  2  0
 18 19  1  0
 19 20  2  0
 19 21  1  0
 17 22  1  0
 15 23  1  0
 21  2  1  0
 18 13  1  0
M  END
>  <CASRN>  (7) 
17924-92-4

>  <Name>  (7) 
Zearalenone

>  <Active>  (7) 
4

>  <Inactive>  (7) 
0

>  <Bioactivity>  (7) 
Active

>  <Min LEL>  (7) 
2.0

>  <Max HDT>  (7) 
nan

>  <Class>  (7) 
1

>  <Code>  (7) 
C17924924

>  <NVS_NR_hER>  (7) 
1.0

>  <OT_ER_ERaERb_1440>  (7) 
1.0

>  <OT_FXR_FXRSRC1_0480>  (7) 
0.0

>  <OT_PPARg_PPARgSRC1_1440>  (7) 
0.0

>  <OT_FXR_FXRSRC1_1440>  (7) 
0.0

>  <OT_NURR1_NURR1RXRa_0480>  (7) 
0.0

>  <OT_NURR1_NURR1RXRa_1440>  (7) 
0.0

>  <OT_PPARg_PPARgSRC1_0480>  (7) 
0.0

>  <OT_AR_ARELUC_AG_1440>  (7) 
0.0

>  <OT_ERa_EREGFP_0120>  (7) 
1.0

>  <ATG_CAR_TRANS_up>  (7) 
0.0

>  <ATG_E2F_CIS_dn>  (7) 
0.0

>  <ATG_EGR_CIS_up>  (7) 
1.0

>  <ATG_ERa_TRANS_dn>  (7) 
0.0

>  <ATG_ERa_TRANS_up>  (7) 
1.0

>  <ATG_FXR_TRANS_dn>  (7) 
0.0

>  <ATG_GLI_CIS_dn>  (7) 
0.0

>  <ATG_GRE_CIS_up>  (7) 
0.0

>  <ATG_LXRa_TRANS_dn>  (7) 
0.0

>  <ATG_LXRa_TRANS_up>  (7) 
0.0

>  <ATG_NRF1_CIS_up>  (7) 
0.0

>  <ATG_NURR1_TRANS_up>  (7) 
1.0

>  <ATG_Sox_CIS_dn>  (7) 
0.0

>  <ATG_Sox_CIS_up>  (7) 
0.0

>  <ATG_Sp1_CIS_up>  (7) 
0.0

>  <ATG_TGFb_CIS_up>  (7) 
0.0

>  <TOX21_ARE_BLA_agonist_ratio>  (7) 
1.0

>  <TOX21_RAR_LUC_Antagonist>  (7) 
1.0

>  <ATG_LXRb_TRANS_dn>  (7) 
0.0

>  <ATG_CAR_TRANS_dn>  (7) 
0.0

>  <ATG_BRE_CIS_dn>  (7) 
0.0

>  <ATG_E2F_CIS_up>  (7) 
0.0

>  <TOX21_TSHR_Agonist_ratio>  (7) 
0.0

>  <ACEA_ER_80hr>  (7) 
1.0

>  <TOX21_CAR_Agonist_viabillity>  (7) 
1.0

>  <TOX21_PR_BLA_Agonist_viability>  (7) 
1.0

>  <TOX21_RT_HEPG2_FLO_40hr_ctrl_viability>  (7) 
1.0

>  <TOX21_AhR_LUC_Agonist_viability>  (7) 
1.0

>  <TOX21_ERR_viability>  (7) 
1.0

>  <TOX21_p53_BLA_p3_viability>  (7) 
0.0

>  <NVS_NR_cAR>  (7) 
1.0

>  <NVS_NR_hPR>  (7) 
1.0

>  <BSK_3C_HLADR_down>  (7) 
1.0

>  <BSK_3C_Vis_down>  (7) 
1.0

>  <BSK_3C_uPAR_down>  (7) 
1.0

>  <NVS_NR_rAR>  (7) 
0.0

>  <NVS_NR_hGR>  (7) 
1.0

>  <NVS_NR_hAR>  (7) 
1.0

>  <NVS_NR_bER>  (7) 
1.0

>  <ACEA_AR_agonist_80hr>  (7) 
0.0

>  <ACEA_AR_agonist_AUC_viability>  (7) 
1.0

>  <ACEA_AR_antagonist_80hr>  (7) 
1.0

>  <ACEA_AR_antagonist_AUC_viability>  (7) 
1.0

>  <ACEA_ER_AUC_viability>  (7) 
0.0

>  <ATG_AP_1_CIS_dn>  (7) 
0.0

>  <ATG_AP_1_CIS_up>  (7) 
0.0

>  <ATG_AP_2_CIS_dn>  (7) 
0.0

>  <ATG_AP_2_CIS_up>  (7) 
0.0

>  <ATG_AR_TRANS_dn>  (7) 
0.0

>  <ATG_AR_TRANS_up>  (7) 
0.0

>  <ATG_Ahr_CIS_dn>  (7) 
1.0

>  <ATG_Ahr_CIS_up>  (7) 
0.0

>  <ATG_BRE_CIS_up>  (7) 
1.0

>  <ATG_CMV_CIS_dn>  (7) 
0.0

>  <ATG_CMV_CIS_up>  (7) 
1.0

>  <ATG_CRE_CIS_dn>  (7) 
0.0

>  <ATG_CRE_CIS_up>  (7) 
0.0

>  <ATG_C_EBP_CIS_dn>  (7) 
0.0

>  <ATG_C_EBP_CIS_up>  (7) 
0.0

>  <ATG_DR4_LXR_CIS_dn>  (7) 
1.0

>  <ATG_DR4_LXR_CIS_up>  (7) 
0.0

>  <ATG_DR5_CIS_dn>  (7) 
0.0

>  <ATG_DR5_CIS_up>  (7) 
1.0

>  <ATG_EGR_CIS_dn>  (7) 
0.0

>  <ATG_ERE_CIS_dn>  (7) 
0.0

>  <ATG_ERE_CIS_up>  (7) 
1.0

>  <ATG_ERRa_TRANS_dn>  (7) 
0.0

>  <ATG_ERRa_TRANS_up>  (7) 
0.0

>  <ATG_ERRg_TRANS_dn>  (7) 
0.0

>  <ATG_ERRg_TRANS_up>  (7) 
0.0

>  <ATG_E_Box_CIS_dn>  (7) 
0.0

>  <ATG_E_Box_CIS_up>  (7) 
0.0

>  <ATG_Ets_CIS_dn>  (7) 
1.0

>  <ATG_Ets_CIS_up>  (7) 
0.0

>  <ATG_FXR_TRANS_up>  (7) 
0.0

>  <ATG_FoxA2_CIS_dn>  (7) 
0.0

>  <ATG_FoxA2_CIS_up>  (7) 
0.0

>  <ATG_FoxO_CIS_dn>  (7) 
1.0

>  <ATG_FoxO_CIS_up>  (7) 
0.0

>  <ATG_GAL4_TRANS_dn>  (7) 
0.0

>  <ATG_GAL4_TRANS_up>  (7) 
0.0

>  <ATG_GATA_CIS_dn>  (7) 
0.0

>  <ATG_GATA_CIS_up>  (7) 
0.0

>  <ATG_GLI_CIS_up>  (7) 
0.0

>  <ATG_GRE_CIS_dn>  (7) 
0.0

>  <ATG_GR_TRANS_dn>  (7) 
0.0

>  <ATG_GR_TRANS_up>  (7) 
0.0

>  <ATG_HIF1a_CIS_dn>  (7) 
0.0

>  <ATG_HIF1a_CIS_up>  (7) 
0.0

>  <ATG_HNF4a_TRANS_dn>  (7) 
0.0

>  <ATG_HNF4a_TRANS_up>  (7) 
0.0

>  <ATG_HNF6_CIS_dn>  (7) 
0.0

>  <ATG_HNF6_CIS_up>  (7) 
0.0

>  <ATG_HSE_CIS_dn>  (7) 
0.0

>  <ATG_HSE_CIS_up>  (7) 
1.0

>  <ATG_IR1_CIS_dn>  (7) 
0.0

>  <ATG_IR1_CIS_up>  (7) 
0.0

>  <ATG_ISRE_CIS_dn>  (7) 
1.0

>  <ATG_ISRE_CIS_up>  (7) 
0.0

>  <ATG_LXRb_TRANS_up>  (7) 
0.0

>  <ATG_MRE_CIS_dn>  (7) 
0.0

>  <ATG_MRE_CIS_up>  (7) 
1.0

>  <ATG_M_06_CIS_dn>  (7) 
0.0

>  <ATG_M_06_CIS_up>  (7) 
0.0

>  <ATG_M_06_TRANS_dn>  (7) 
0.0

>  <ATG_M_06_TRANS_up>  (7) 
0.0

>  <ATG_M_19_CIS_dn>  (7) 
0.0

>  <ATG_M_19_CIS_up>  (7) 
0.0

>  <ATG_M_19_TRANS_dn>  (7) 
0.0

>  <ATG_M_19_TRANS_up>  (7) 
0.0

>  <ATG_M_32_CIS_dn>  (7) 
0.0

>  <ATG_M_32_CIS_up>  (7) 
0.0

>  <ATG_M_32_TRANS_dn>  (7) 
0.0

>  <ATG_M_32_TRANS_up>  (7) 
0.0

>  <ATG_M_61_CIS_dn>  (7) 
0.0

>  <ATG_M_61_CIS_up>  (7) 
0.0

>  <ATG_M_61_TRANS_dn>  (7) 
0.0

>  <ATG_M_61_TRANS_up>  (7) 
0.0

>  <ATG_Myb_CIS_dn>  (7) 
0.0

>  <ATG_Myb_CIS_up>  (7) 
0.0

>  <ATG_Myc_CIS_dn>  (7) 
0.0

>  <ATG_Myc_CIS_up>  (7) 
0.0

>  <ATG_NFI_CIS_dn>  (7) 
0.0

>  <ATG_NFI_CIS_up>  (7) 
0.0

>  <ATG_NF_kB_CIS_dn>  (7) 
0.0

>  <ATG_NF_kB_CIS_up>  (7) 
0.0

>  <ATG_NRF1_CIS_dn>  (7) 
1.0

>  <ATG_NRF2_ARE_CIS_dn>  (7) 
0.0

>  <ATG_NRF2_ARE_CIS_up>  (7) 
0.0

>  <ATG_NURR1_TRANS_dn>  (7) 
0.0

>  <ATG_Oct_MLP_CIS_dn>  (7) 
0.0

>  <ATG_Oct_MLP_CIS_up>  (7) 
1.0

>  <ATG_PBREM_CIS_dn>  (7) 
0.0

>  <ATG_PBREM_CIS_up>  (7) 
1.0

>  <ATG_PPARa_TRANS_dn>  (7) 
0.0

>  <ATG_PPARa_TRANS_up>  (7) 
0.0

>  <ATG_PPARd_TRANS_dn>  (7) 
0.0

>  <ATG_PPARd_TRANS_up>  (7) 
0.0

>  <ATG_PPARg_TRANS_dn>  (7) 
0.0

>  <ATG_PPARg_TRANS_up>  (7) 
0.0

>  <ATG_PPRE_CIS_dn>  (7) 
0.0

>  <ATG_PPRE_CIS_up>  (7) 
1.0

>  <ATG_PXRE_CIS_dn>  (7) 
0.0

>  <ATG_PXRE_CIS_up>  (7) 
1.0

>  <ATG_PXR_TRANS_dn>  (7) 
0.0

>  <ATG_PXR_TRANS_up>  (7) 
1.0

>  <ATG_Pax6_CIS_dn>  (7) 
0.0

>  <ATG_Pax6_CIS_up>  (7) 
1.0

>  <ATG_RARa_TRANS_dn>  (7) 
0.0

>  <ATG_RARa_TRANS_up>  (7) 
0.0

>  <ATG_RARb_TRANS_dn>  (7) 
0.0

>  <ATG_RARb_TRANS_up>  (7) 
0.0

>  <ATG_RARg_TRANS_dn>  (7) 
0.0

>  <ATG_RARg_TRANS_up>  (7) 
0.0

>  <ATG_RORE_CIS_dn>  (7) 
0.0

>  <ATG_RORE_CIS_up>  (7) 
0.0

>  <ATG_RORb_TRANS_dn>  (7) 
0.0

>  <ATG_RORb_TRANS_up>  (7) 
0.0

>  <ATG_RORg_TRANS_dn>  (7) 
0.0

>  <ATG_RORg_TRANS_up>  (7) 
0.0

>  <ATG_RXRa_TRANS_dn>  (7) 
0.0

>  <ATG_RXRa_TRANS_up>  (7) 
0.0

>  <ATG_RXRb_TRANS_dn>  (7) 
0.0

>  <ATG_RXRb_TRANS_up>  (7) 
1.0

>  <ATG_SREBP_CIS_dn>  (7) 
0.0

>  <ATG_SREBP_CIS_up>  (7) 
0.0

>  <ATG_STAT3_CIS_dn>  (7) 
0.0

>  <ATG_STAT3_CIS_up>  (7) 
0.0

>  <ATG_Sp1_CIS_dn>  (7) 
0.0

>  <ATG_TAL_CIS_dn>  (7) 
0.0

>  <ATG_TAL_CIS_up>  (7) 
0.0

>  <ATG_TA_CIS_dn>  (7) 
0.0

>  <ATG_TA_CIS_up>  (7) 
0.0

>  <ATG_TCF_b_cat_CIS_dn>  (7) 
0.0

>  <ATG_TCF_b_cat_CIS_up>  (7) 
0.0

>  <ATG_TGFb_CIS_dn>  (7) 
0.0

>  <ATG_THRa1_TRANS_dn>  (7) 
0.0

>  <ATG_THRa1_TRANS_up>  (7) 
0.0

>  <ATG_VDRE_CIS_dn>  (7) 
0.0

>  <ATG_VDRE_CIS_up>  (7) 
1.0

>  <ATG_VDR_TRANS_dn>  (7) 
0.0

>  <ATG_VDR_TRANS_up>  (7) 
0.0

>  <ATG_XTT_Cytotoxicity_up>  (7) 
0.0

>  <ATG_Xbp1_CIS_dn>  (7) 
0.0

>  <ATG_Xbp1_CIS_up>  (7) 
0.0

>  <ATG_p53_CIS_dn>  (7) 
0.0

>  <ATG_p53_CIS_up>  (7) 
0.0

>  <CEETOX_H295R_11DCORT_noMTC_dn>  (7) 
1.0

>  <CEETOX_H295R_11DCORT_noMTC_up>  (7) 
0.0

>  <CEETOX_H295R_ANDR_noMTC_dn>  (7) 
1.0

>  <CEETOX_H295R_ANDR_noMTC_up>  (7) 
0.0

>  <CEETOX_H295R_CORTIC_noMTC_dn>  (7) 
1.0

>  <CEETOX_H295R_CORTIC_noMTC_up>  (7) 
0.0

>  <CEETOX_H295R_CORTISOL_noMTC_dn>  (7) 
1.0

>  <CEETOX_H295R_CORTISOL_noMTC_up>  (7) 
0.0

>  <CEETOX_H295R_DOC_noMTC_dn>  (7) 
1.0

>  <CEETOX_H295R_DOC_noMTC_up>  (7) 
0.0

>  <CEETOX_H295R_ESTRADIOL_noMTC_dn>  (7) 
1.0

>  <CEETOX_H295R_ESTRADIOL_noMTC_up>  (7) 
0.0

>  <CEETOX_H295R_ESTRONE_noMTC_dn>  (7) 
1.0

>  <CEETOX_H295R_ESTRONE_noMTC_up>  (7) 
0.0

>  <CEETOX_H295R_MTT_cell_viability_dn>  (7) 
1.0

>  <CEETOX_H295R_MTT_cell_viability_up>  (7) 
0.0

>  <CEETOX_H295R_OHPREG_noMTC_dn>  (7) 
0.0

>  <CEETOX_H295R_OHPREG_noMTC_up>  (7) 
0.0

>  <CEETOX_H295R_OHPROG_noMTC_dn>  (7) 
0.0

>  <CEETOX_H295R_OHPROG_noMTC_up>  (7) 
1.0

>  <CEETOX_H295R_PROG_noMTC_dn>  (7) 
0.0

>  <CEETOX_H295R_PROG_noMTC_up>  (7) 
1.0

>  <CEETOX_H295R_TESTO_noMTC_dn>  (7) 
1.0

>  <CEETOX_H295R_TESTO_noMTC_up>  (7) 
0.0

>  <NCCT_HEK293T_CellTiterGLO>  (7) 
1.0

>  <NCCT_QuantiLum_inhib_2_dn>  (7) 
0.0

>  <NCCT_TPO_AUR_dn>  (7) 
1.0

>  <NVS_GPCR_rTRH>  (7) 
0.0

>  <NVS_MP_hPBR>  (7) 
1.0

>  <NVS_MP_rPBR>  (7) 
1.0

>  <NVS_NR_hPPARg>  (7) 
1.0

>  <NVS_NR_hPXR>  (7) 
1.0

>  <OT_AR_ARSRC1_0480>  (7) 
0.0

>  <OT_AR_ARSRC1_0960>  (7) 
0.0

>  <OT_ER_ERaERa_0480>  (7) 
1.0

>  <OT_ER_ERaERa_1440>  (7) 
1.0

>  <OT_ER_ERaERb_0480>  (7) 
1.0

>  <OT_ER_ERbERb_0480>  (7) 
1.0

>  <OT_ER_ERbERb_1440>  (7) 
1.0

>  <OT_ERa_EREGFP_0480>  (7) 
1.0

>  <TOX21_AP1_BLA_Agonist_ch1>  (7) 
1.0

>  <TOX21_AP1_BLA_Agonist_ch2>  (7) 
0.0

>  <TOX21_AP1_BLA_Agonist_ratio>  (7) 
0.0

>  <TOX21_AP1_BLA_Agonist_viability>  (7) 
1.0

>  <TOX21_ARE_BLA_Agonist_ch1>  (7) 
0.0

>  <TOX21_ARE_BLA_Agonist_ch2>  (7) 
1.0

>  <TOX21_ARE_BLA_agonist_viability>  (7) 
1.0

>  <TOX21_AR_BLA_Agonist_ch1>  (7) 
0.0

>  <TOX21_AR_BLA_Agonist_ch2>  (7) 
0.0

>  <TOX21_AR_BLA_Agonist_ratio>  (7) 
0.0

>  <TOX21_AR_BLA_Antagonist_ch1>  (7) 
1.0

>  <TOX21_AR_BLA_Antagonist_ch2>  (7) 
1.0

>  <TOX21_AR_BLA_Antagonist_ratio>  (7) 
1.0

>  <TOX21_AR_BLA_Antagonist_viability>  (7) 
1.0

>  <TOX21_AR_LUC_MDAKB2_Agonist>  (7) 
0.0

>  <TOX21_AR_LUC_MDAKB2_Agonist_3uM_Nilutamide>  (7) 
0.0

>  <TOX21_AR_LUC_MDAKB2_Agonist_3uM_Nilutamide_viability>  (7) 
1.0

>  <TOX21_AR_LUC_MDAKB2_Antagonist_0.5nM_R1881>  (7) 
1.0

>  <TOX21_AR_LUC_MDAKB2_Antagonist_0.5nM_R1881_viability>  (7) 
1.0

>  <TOX21_AR_LUC_MDAKB2_Antagonist_10nM_R1881>  (7) 
1.0

>  <TOX21_AR_LUC_MDAKB2_Antagonist_10nM_R1881_viability>  (7) 
1.0

>  <TOX21_AhR_LUC_Agonist>  (7) 
0.0

>  <TOX21_Aromatase_Inhibition>  (7) 
1.0

>  <TOX21_Aromatase_Inhibition_viability>  (7) 
1.0

>  <TOX21_AutoFluor_HEK293_Cell_blue>  (7) 
0.0

>  <TOX21_AutoFluor_HEK293_Cell_green>  (7) 
0.0

>  <TOX21_AutoFluor_HEK293_Cell_red>  (7) 
0.0

>  <TOX21_AutoFluor_HEK293_Media_blue>  (7) 
0.0

>  <TOX21_AutoFluor_HEK293_Media_green>  (7) 
0.0

>  <TOX21_AutoFluor_HEK293_Media_red>  (7) 
0.0

>  <TOX21_AutoFluor_HEPG2_Cell_blue>  (7) 
0.0

>  <TOX21_AutoFluor_HEPG2_Cell_green>  (7) 
0.0

>  <TOX21_AutoFluor_HEPG2_Cell_red>  (7) 
0.0

>  <TOX21_AutoFluor_HEPG2_Media_blue>  (7) 
0.0

>  <TOX21_AutoFluor_HEPG2_Media_green>  (7) 
0.0

>  <TOX21_AutoFluor_HEPG2_Media_red>  (7) 
0.0

>  <TOX21_CAR_Agonist>  (7) 
0.0

>  <TOX21_CAR_Antagonist>  (7) 
1.0

>  <TOX21_CAR_Antagonist_viability>  (7) 
1.0

>  <TOX21_CASP3_CHO>  (7) 
0.0

>  <TOX21_CASP3_CHO_viability>  (7) 
1.0

>  <TOX21_CASP3_HEPG2>  (7) 
0.0

>  <TOX21_CASP3_HEPG2_viability>  (7) 
1.0

>  <TOX21_DT40>  (7) 
1.0

>  <TOX21_DT40_100>  (7) 
1.0

>  <TOX21_DT40_657>  (7) 
1.0

>  <TOX21_ELG1_LUC_Agonist>  (7) 
0.0

>  <TOX21_ELG1_LUC_Agonist_viability>  (7) 
1.0

>  <TOX21_ERR_Agonist>  (7) 
0.0

>  <TOX21_ERR_Antagonist>  (7) 
1.0

>  <TOX21_ERa_BLA_Agonist_ch1>  (7) 
1.0

>  <TOX21_ERa_BLA_Agonist_ch2>  (7) 
1.0

>  <TOX21_ERa_BLA_Agonist_ratio>  (7) 
1.0

>  <TOX21_ERa_BLA_Antagonist_ch1>  (7) 
1.0

>  <TOX21_ERa_BLA_Antagonist_ch2>  (7) 
1.0

>  <TOX21_ERa_BLA_Antagonist_ratio>  (7) 
1.0

>  <TOX21_ERa_BLA_Antagonist_viability>  (7) 
0.0

>  <TOX21_ERa_LUC_VM7_Agonist>  (7) 
1.0

>  <TOX21_ERa_LUC_VM7_Agonist_10nM_ICI182780>  (7) 
1.0

>  <TOX21_ERa_LUC_VM7_Agonist_10nM_ICI182780_viability>  (7) 
1.0

>  <TOX21_ERa_LUC_VM7_Antagonist_0.1nM_E2>  (7) 
1.0

>  <TOX21_ERa_LUC_VM7_Antagonist_0.1nM_E2_viability>  (7) 
1.0

>  <TOX21_ERa_LUC_VM7_Antagonist_0.5nM_E2>  (7) 
1.0

>  <TOX21_ERa_LUC_VM7_Antagonist_0.5nM_E2_viability>  (7) 
1.0

>  <TOX21_ERb_BLA_Agonist_ch1>  (7) 
0.0

>  <TOX21_ERb_BLA_Agonist_ch2>  (7) 
0.0

>  <TOX21_ERb_BLA_Agonist_ratio>  (7) 
0.0

>  <TOX21_ERb_BLA_Agonist_viability>  (7) 
1.0

>  <TOX21_ERb_BLA_Antagonist_ch1>  (7) 
1.0

>  <TOX21_ERb_BLA_Antagonist_ch2>  (7) 
1.0

>  <TOX21_ERb_BLA_Antagonist_ratio>  (7) 
1.0

>  <TOX21_ERb_BLA_Antagonist_viability>  (7) 
1.0

>  <TOX21_ESRE_BLA_ch1>  (7) 
0.0

>  <TOX21_ESRE_BLA_ch2>  (7) 
0.0

>  <TOX21_ESRE_BLA_ratio>  (7) 
0.0

>  <TOX21_ESRE_BLA_viability>  (7) 
1.0

>  <TOX21_FXR_BLA_Antagonist_ch1>  (7) 
0.0

>  <TOX21_FXR_BLA_Antagonist_ch2>  (7) 
1.0

>  <TOX21_FXR_BLA_agonist_ch1>  (7) 
0.0

>  <TOX21_FXR_BLA_agonist_ch2>  (7) 
0.0

>  <TOX21_FXR_BLA_agonist_ratio>  (7) 
0.0

>  <TOX21_FXR_BLA_agonist_viability>  (7) 
0.0

>  <TOX21_FXR_BLA_antagonist_ratio>  (7) 
1.0

>  <TOX21_FXR_BLA_antagonist_viability>  (7) 
0.0

>  <TOX21_GR_BLA_Agonist_ch1>  (7) 
0.0

>  <TOX21_GR_BLA_Agonist_ch2>  (7) 
0.0

>  <TOX21_GR_BLA_Agonist_ratio>  (7) 
0.0

>  <TOX21_GR_BLA_Antagonist_ch1>  (7) 
0.0

>  <TOX21_GR_BLA_Antagonist_ch2>  (7) 
1.0

>  <TOX21_GR_BLA_Antagonist_ratio>  (7) 
1.0

>  <TOX21_GR_BLA_Antagonist_viability>  (7) 
1.0

>  <TOX21_H2AX_HTRF_CHO_Agonist_ch1>  (7) 
0.0

>  <TOX21_H2AX_HTRF_CHO_Agonist_ch2>  (7) 
0.0

>  <TOX21_H2AX_HTRF_CHO_Agonist_ratio>  (7) 
0.0

>  <TOX21_H2AX_HTRF_CHO_viability>  (7) 
1.0

>  <TOX21_HDAC_Inhibition>  (7) 
0.0

>  <TOX21_HDAC_Inhibition_viability>  (7) 
0.0

>  <TOX21_HRE_BLA_Agonist_ch1>  (7) 
0.0

>  <TOX21_HRE_BLA_Agonist_ch2>  (7) 
0.0

>  <TOX21_HRE_BLA_Agonist_ratio>  (7) 
0.0

>  <TOX21_HRE_BLA_Agonist_viability>  (7) 
0.0

>  <TOX21_HSE_BLA_agonist_ch1>  (7) 
0.0

>  <TOX21_HSE_BLA_agonist_ch2>  (7) 
1.0

>  <TOX21_HSE_BLA_agonist_ratio>  (7) 
1.0

>  <TOX21_HSE_BLA_agonist_viability>  (7) 
0.0

>  <TOX21_LUC_Biochem>  (7) 
0.0

>  <TOX21_MMP_fitc>  (7) 
1.0

>  <TOX21_MMP_ratio_down>  (7) 
1.0

>  <TOX21_MMP_ratio_up>  (7) 
0.0

>  <TOX21_MMP_rhodamine>  (7) 
1.0

>  <TOX21_MMP_viability>  (7) 
1.0

>  <TOX21_NFkB_BLA_agonist_ch1>  (7) 
1.0

>  <TOX21_NFkB_BLA_agonist_ch2>  (7) 
0.0

>  <TOX21_NFkB_BLA_agonist_ratio>  (7) 
0.0

>  <TOX21_NFkB_BLA_agonist_viability>  (7) 
1.0

>  <TOX21_PGC_ERR_Agonist>  (7) 
0.0

>  <TOX21_PGC_ERR_Antagonist>  (7) 
1.0

>  <TOX21_PGC_ERR_viability>  (7) 
1.0

>  <TOX21_PPARd_BLA_Agonist_viability>  (7) 
0.0

>  <TOX21_PPARd_BLA_Antagonist_ch1>  (7) 
0.0

>  <TOX21_PPARd_BLA_Antagonist_ch2>  (7) 
0.0

>  <TOX21_PPARd_BLA_agonist_ch1>  (7) 
0.0

>  <TOX21_PPARd_BLA_agonist_ch2>  (7) 
0.0

>  <TOX21_PPARd_BLA_agonist_ratio>  (7) 
0.0

>  <TOX21_PPARd_BLA_antagonist_ratio>  (7) 
1.0

>  <TOX21_PPARd_BLA_antagonist_viability>  (7) 
0.0

>  <TOX21_PPARg_BLA_Agonist_ch1>  (7) 
0.0

>  <TOX21_PPARg_BLA_Agonist_ch2>  (7) 
0.0

>  <TOX21_PPARg_BLA_Agonist_ratio>  (7) 
0.0

>  <TOX21_PPARg_BLA_Antagonist_ch1>  (7) 
1.0

>  <TOX21_PPARg_BLA_Antagonist_ch2>  (7) 
0.0

>  <TOX21_PPARg_BLA_antagonist_ratio>  (7) 
1.0

>  <TOX21_PPARg_BLA_antagonist_viability>  (7) 
0.0

>  <TOX21_PR_BLA_Agonist_ch1>  (7) 
0.0

>  <TOX21_PR_BLA_Agonist_ch2>  (7) 
0.0

>  <TOX21_PR_BLA_Agonist_ratio>  (7) 
0.0

>  <TOX21_PR_BLA_Antagonist_ch1>  (7) 
0.0

>  <TOX21_PR_BLA_Antagonist_ch2>  (7) 
1.0

>  <TOX21_PR_BLA_Antagonist_ratio>  (7) 
1.0

>  <TOX21_PR_BLA_Antagonist_viability>  (7) 
1.0

>  <TOX21_PR_BLA_Followup_Agonist_ch1>  (7) 
0.0

>  <TOX21_PR_BLA_Followup_Agonist_ch2>  (7) 
0.0

>  <TOX21_PR_BLA_Followup_Agonist_ratio>  (7) 
0.0

>  <TOX21_PR_BLA_Followup_Agonist_viability>  (7) 
0.0

>  <TOX21_PR_BLA_Followup_Antagonist_ch1>  (7) 
1.0

>  <TOX21_PR_BLA_Followup_Antagonist_ch2>  (7) 
0.0

>  <TOX21_PR_BLA_Followup_Antagonist_ratio>  (7) 
1.0

>  <TOX21_PR_BLA_Followup_Antagonist_viability>  (7) 
0.0

>  <TOX21_PR_LUC_Followup_Agonist>  (7) 
0.0

>  <TOX21_PR_LUC_Followup_Agonist_viability>  (7) 
0.0

>  <TOX21_PR_LUC_Followup_Antagonist>  (7) 
1.0

>  <TOX21_PR_LUC_Followup_Antagonist_viability>  (7) 
0.0

>  <TOX21_PXR_Agonist>  (7) 
0.0

>  <TOX21_PXR_viability>  (7) 
1.0

>  <TOX21_RAR_LUC_Agonist>  (7) 
0.0

>  <TOX21_RAR_LUC_Agonist_viability>  (7) 
1.0

>  <TOX21_RAR_LUC_Antagonist_viability>  (7) 
0.0

>  <TOX21_RORg_LUC_CHO_Antagonist>  (7) 
1.0

>  <TOX21_RORg_LUC_CHO_Antagonist_viability>  (7) 
1.0

>  <TOX21_RT_HEK293_FLO_00hr_viability>  (7) 
0.0

>  <TOX21_RT_HEK293_FLO_08hr_viability>  (7) 
0.0

>  <TOX21_RT_HEK293_FLO_16hr_viability>  (7) 
0.0

>  <TOX21_RT_HEK293_FLO_24hr_viability>  (7) 
1.0

>  <TOX21_RT_HEK293_FLO_32hr_viability>  (7) 
1.0

>  <TOX21_RT_HEK293_FLO_40hr_viability>  (7) 
1.0

>  <TOX21_RT_HEK293_GLO_00hr_viability>  (7) 
1.0

>  <TOX21_RT_HEK293_GLO_08hr_viability>  (7) 
1.0

>  <TOX21_RT_HEK293_GLO_16hr_viability>  (7) 
1.0

>  <TOX21_RT_HEK293_GLO_24hr_viability>  (7) 
1.0

>  <TOX21_RT_HEK293_GLO_32hr_viability>  (7) 
1.0

>  <TOX21_RT_HEK293_GLO_40hr_viability>  (7) 
1.0

>  <TOX21_RT_HEPG2_FLO_00hr_ctrl_viability>  (7) 
0.0

>  <TOX21_RT_HEPG2_FLO_08hr_viability>  (7) 
0.0

>  <TOX21_RT_HEPG2_FLO_16hr_ctrl_viability>  (7) 
0.0

>  <TOX21_RT_HEPG2_FLO_24hr_viability>  (7) 
0.0

>  <TOX21_RT_HEPG2_FLO_32hr_ctrl_viability>  (7) 
0.0

>  <TOX21_RT_HEPG2_GLO_00hr_ctrl_viability>  (7) 
0.0

>  <TOX21_RT_HEPG2_GLO_08hr_ctrl_viability>  (7) 
1.0

>  <TOX21_RT_HEPG2_GLO_16hr_ctrl_viability>  (7) 
1.0

>  <TOX21_RT_HEPG2_GLO_24hr_ctrl_viability>  (7) 
1.0

>  <TOX21_RT_HEPG2_GLO_32hr_ctrl_viability>  (7) 
0.0

>  <TOX21_RT_HEPG2_GLO_40hr_viability>  (7) 
0.0

>  <TOX21_RXR_BLA_Agonist_ch1>  (7) 
0.0

>  <TOX21_RXR_BLA_Agonist_ch2>  (7) 
0.0

>  <TOX21_RXR_BLA_Agonist_ratio>  (7) 
0.0

>  <TOX21_RXR_BLA_Agonist_viability>  (7) 
1.0

>  <TOX21_SBE_BLA_Agonist_ch1>  (7) 
0.0

>  <TOX21_SBE_BLA_Agonist_ch2>  (7) 
0.0

>  <TOX21_SBE_BLA_Agonist_ratio>  (7) 
0.0

>  <TOX21_SBE_BLA_Agonist_viability>  (7) 
0.0

>  <TOX21_SBE_BLA_Antagonist_ch1>  (7) 
0.0

>  <TOX21_SBE_BLA_Antagonist_ch2>  (7) 
1.0

>  <TOX21_SBE_BLA_Antagonist_ratio>  (7) 
1.0

>  <TOX21_SBE_BLA_Antagonist_viability>  (7) 
0.0

>  <TOX21_SSH_3T3_GLI3_Agonist>  (7) 
0.0

>  <TOX21_SSH_3T3_GLI3_Agonist_viability>  (7) 
1.0

>  <TOX21_SSH_3T3_GLI3_Antagonist>  (7) 
1.0

>  <TOX21_SSH_3T3_GLI3_Antagonist_viability>  (7) 
1.0

>  <TOX21_TRHR_HEK293_Agonist>  (7) 
0.0

>  <TOX21_TRHR_HEK293_Antagonist>  (7) 
0.0

>  <TOX21_TR_LUC_GH3_Agonist>  (7) 
0.0

>  <TOX21_TR_LUC_GH3_Antagonist>  (7) 
1.0

>  <TOX21_TR_LUC_GH3_Antagonist_viability>  (7) 
1.0

>  <TOX21_TSHR_Agonist_ch2>  (7) 
0.0

>  <TOX21_TSHR_Antagonist_ch2>  (7) 
0.0

>  <TOX21_TSHR_Antagonist_ratio>  (7) 
0.0

>  <TOX21_TSHR_HTRF_Agonist_ch1>  (7) 
0.0

>  <TOX21_TSHR_HTRF_Antagonist_ch1>  (7) 
0.0

>  <TOX21_TSHR_wt_HTRF_ch1>  (7) 
0.0

>  <TOX21_TSHR_wt_ch2>  (7) 
0.0

>  <TOX21_TSHR_wt_ratio>  (7) 
0.0

>  <TOX21_VDR_BLA_Agonist_viability>  (7) 
1.0

>  <TOX21_VDR_BLA_Antagonist_ch1>  (7) 
0.0

>  <TOX21_VDR_BLA_Antagonist_ch2>  (7) 
0.0

>  <TOX21_VDR_BLA_agonist_ch1>  (7) 
0.0

>  <TOX21_VDR_BLA_agonist_ch2>  (7) 
0.0

>  <TOX21_VDR_BLA_agonist_ratio>  (7) 
0.0

>  <TOX21_VDR_BLA_antagonist_ratio>  (7) 
0.0

>  <TOX21_VDR_BLA_antagonist_viability>  (7) 
0.0

>  <TOX21_p53_BLA_p1_ch1>  (7) 
0.0

>  <TOX21_p53_BLA_p1_ch2>  (7) 
1.0

>  <TOX21_p53_BLA_p1_ratio>  (7) 
1.0

>  <TOX21_p53_BLA_p1_viability>  (7) 
0.0

>  <TOX21_p53_BLA_p2_ch1>  (7) 
1.0

>  <TOX21_p53_BLA_p2_ch2>  (7) 
1.0

>  <TOX21_p53_BLA_p2_ratio>  (7) 
1.0

>  <TOX21_p53_BLA_p2_viability>  (7) 
0.0

>  <TOX21_p53_BLA_p3_ch1>  (7) 
0.0

>  <TOX21_p53_BLA_p3_ch2>  (7) 
1.0

>  <TOX21_p53_BLA_p3_ratio>  (7) 
1.0

>  <TOX21_p53_BLA_p4_ch1>  (7) 
0.0

>  <TOX21_p53_BLA_p4_ch2>  (7) 
1.0

>  <TOX21_p53_BLA_p4_ratio>  (7) 
1.0

>  <TOX21_p53_BLA_p4_viability>  (7) 
0.0

>  <TOX21_p53_BLA_p5_ch1>  (7) 
0.0

>  <TOX21_p53_BLA_p5_ch2>  (7) 
1.0

>  <TOX21_p53_BLA_p5_ratio>  (7) 
1.0

>  <TOX21_p53_BLA_p5_viability>  (7) 
0.0

>  <UPITT_HCI_U2OS_AR_TIF2_Nucleoli_Agonist>  (7) 
1.0

>  <UPITT_HCI_U2OS_AR_TIF2_Nucleoli_Antagonist>  (7) 
1.0

>  <UPITT_HCI_U2OS_AR_TIF2_Nucleoli_Cytoplasm_Ratio_Agonist>  (7) 
1.0

>  <UPITT_HCI_U2OS_AR_TIF2_Nucleoli_Cytoplasm_Ratio_Antagonist>  (7) 
0.0

>  <NVS_NR_mERa>  (7) 
0

$$$$

     RDKit          3D

 23 24  0  0  0  0  0  0  0  0999 V2000
    0.0000    0.0000    0.0000 C   0  0  0  0  0  0  0  0  0  0  0  0
    0.0000    0.0000    0.0000 C   0  0  0  0  0  0  0  0  0  0  0  0
    0.0000    0.0000    0.0000 C   0  0  0  0  0  0  0  0  0  0  0  0
    0.0000    0.0000    0.0000 C   0  0  0  0  0  0  0  0  0  0  0  0
    0.0000    0.0000    0.0000 C   0  0  0  0  0  0  0  0  0  0  0  0
    0.0000    0.0000    0.0000 C   0  0  0  0  0  0  0  0  0  0  0  0
    0.0000    0.0000    0.0000 C   0  0  0  0  0  0  0  0  0  0  0  0
    0.0000    0.0000    0.0000 C   0  0  0  0  0  0  0  0  0  0  0  0
    0.0000    0.0000    0.0000 C   0  0  0  0  0  0  0  0  0  0  0  0
    0.0000    0.0000    0.0000 C   0  0  0  0  0  0  0  0  0  0  0  0
    0.0000    0.0000    0.0000 C   0  0  0  0  0  0  0  0  0  0  0  0
    0.0000    0.0000    0.0000 C   0  0  0  0  0  0  0  0  0  0  0  0
    0.0000    0.0000    0.0000 C   0  0  0  0  0  0  0  0  0  0  0  0
    0.0000    0.0000    0.0000 O   0  0  0  0  0  0  0  0  0  0  0  0
    0.0000    0.0000    0.0000 C   0  0  0  0  0  0  0  0  0  0  0  0
    0.0000    0.0000    0.0000 F   0  0  0  0  0  0  0  0  0  0  0  0
    0.0000    0.0000    0.0000 F   0  0  0  0  0  0  0  0  0  0  0  0
    0.0000    0.0000    0.0000 F   0  0  0  0  0  0  0  0  0  0  0  0
    0.0000    0.0000    0.0000 C   0  0  0  0  0  0  0  0  0  0  0  0
    0.0000    0.0000    0.0000 F   0  0  0  0  0  0  0  0  0  0  0  0
    0.0000    0.0000    0.0000 F   0  0  0  0  0  0  0  0  0  0  0  0
    0.0000    0.0000    0.0000 F   0  0  0  0  0  0  0  0  0  0  0  0
    0.0000    0.0000    0.0000 O   0  0  0  0  0  0  0  0  0  0  0  0
  1  2  2  0
  2  3  1  0
  3  4  2  0
  4  5  1  0
  5  6  2  0
  6  7  1  0
  7  8  1  0
  8  9  2  0
  9 10  1  0
 10 11  2  0
 11 12  1  0
 12 13  2  0
 11 14  1  0
  7 15  1  0
 15 16  1  0
 15 17  1  0
 15 18  1  0
  7 19  1  0
 19 20  1  0
 19 21  1  0
 19 22  1  0
  3 23  1  0
  6  1  1  0
 13  8  1  0
M  END
>  <CASRN>  (8) 
1478-61-1

>  <Name>  (8) 
Bisphenol AF

>  <Active>  (8) 
4

>  <Inactive>  (8) 
0

>  <Bioactivity>  (8) 
Active

>  <Min LEL>  (8) 
4.0

>  <Max HDT>  (8) 
nan

>  <Class>  (8) 
1

>  <Code>  (8) 
C1478611

>  <NVS_NR_hER>  (8) 
1.0

>  <NVS_NR_cAR>  (8) 
1.0

>  <NVS_NR_hAR>  (8) 
1.0

>  <NVS_NR_hGR>  (8) 
1.0

>  <NVS_NR_hPR>  (8) 
1.0

>  <NVS_NR_rAR>  (8) 
1.0

>  <OT_ER_ERaERb_1440>  (8) 
1.0

>  <OT_FXR_FXRSRC1_0480>  (8) 
1.0

>  <OT_PPARg_PPARgSRC1_1440>  (8) 
0.0

>  <OT_FXR_FXRSRC1_1440>  (8) 
1.0

>  <OT_NURR1_NURR1RXRa_0480>  (8) 
0.0

>  <OT_NURR1_NURR1RXRa_1440>  (8) 
0.0

>  <OT_PPARg_PPARgSRC1_0480>  (8) 
0.0

>  <OT_AR_ARELUC_AG_1440>  (8) 
0.0

>  <OT_ERa_EREGFP_0120>  (8) 
1.0

>  <BSK_3C_HLADR_down>  (8) 
1.0

>  <BSK_3C_Vis_down>  (8) 
1.0

>  <BSK_3C_uPAR_down>  (8) 
1.0

>  <ATG_CAR_TRANS_up>  (8) 
0.0

>  <ATG_E2F_CIS_dn>  (8) 
0.0

>  <ATG_EGR_CIS_up>  (8) 
1.0

>  <ATG_ERa_TRANS_dn>  (8) 
0.0

>  <ATG_ERa_TRANS_up>  (8) 
1.0

>  <ATG_FXR_TRANS_dn>  (8) 
0.0

>  <ATG_GLI_CIS_dn>  (8) 
0.0

>  <ATG_GRE_CIS_up>  (8) 
0.0

>  <ATG_LXRa_TRANS_dn>  (8) 
0.0

>  <ATG_LXRa_TRANS_up>  (8) 
0.0

>  <ATG_NRF1_CIS_up>  (8) 
0.0

>  <ATG_NURR1_TRANS_up>  (8) 
0.0

>  <ATG_Sox_CIS_dn>  (8) 
0.0

>  <ATG_Sox_CIS_up>  (8) 
0.0

>  <ATG_Sp1_CIS_up>  (8) 
1.0

>  <ATG_TGFb_CIS_up>  (8) 
0.0

>  <TOX21_ARE_BLA_agonist_ratio>  (8) 
1.0

>  <TOX21_RAR_LUC_Antagonist>  (8) 
1.0

>  <ATG_LXRb_TRANS_dn>  (8) 
0.0

>  <ATG_CAR_TRANS_dn>  (8) 
0.0

>  <ATG_BRE_CIS_dn>  (8) 
0.0

>  <ATG_E2F_CIS_up>  (8) 
0.0

>  <TOX21_TSHR_Agonist_ratio>  (8) 
1.0

>  <ACEA_ER_80hr>  (8) 
1.0

>  <TOX21_CAR_Agonist_viabillity>  (8) 
1.0

>  <TOX21_PR_BLA_Agonist_viability>  (8) 
1.0

>  <TOX21_RT_HEPG2_FLO_40hr_ctrl_viability>  (8) 
1.0

>  <TOX21_AhR_LUC_Agonist_viability>  (8) 
0.0

>  <TOX21_ERR_viability>  (8) 
1.0

>  <TOX21_p53_BLA_p3_viability>  (8) 
1.0

>  <NVS_NR_bER>  (8) 
1.0

>  <ACEA_AR_agonist_80hr>  (8) 
0.0

>  <ACEA_AR_agonist_AUC_viability>  (8) 
1.0

>  <ACEA_AR_antagonist_80hr>  (8) 
0.0

>  <ACEA_AR_antagonist_AUC_viability>  (8) 
0.0

>  <ACEA_ER_AUC_viability>  (8) 
1.0

>  <APR_HepG2_CellCycleArrest_24h_dn>  (8) 
0.0

>  <APR_HepG2_CellCycleArrest_24h_up>  (8) 
0.0

>  <APR_HepG2_CellCycleArrest_72h_dn>  (8) 
0.0

>  <APR_HepG2_CellCycleArrest_72h_up>  (8) 
0.0

>  <APR_HepG2_CellLoss_24h_dn>  (8) 
0.0

>  <APR_HepG2_CellLoss_24h_up>  (8) 
0.0

>  <APR_HepG2_CellLoss_72h_dn>  (8) 
1.0

>  <APR_HepG2_CellLoss_72h_up>  (8) 
0.0

>  <APR_HepG2_MicrotubuleCSK_24h_dn>  (8) 
0.0

>  <APR_HepG2_MicrotubuleCSK_24h_up>  (8) 
0.0

>  <APR_HepG2_MicrotubuleCSK_72h_dn>  (8) 
0.0

>  <APR_HepG2_MicrotubuleCSK_72h_up>  (8) 
0.0

>  <APR_HepG2_MitoMass_24h_dn>  (8) 
0.0

>  <APR_HepG2_MitoMass_24h_up>  (8) 
0.0

>  <APR_HepG2_MitoMass_72h_dn>  (8) 
0.0

>  <APR_HepG2_MitoMass_72h_up>  (8) 
0.0

>  <APR_HepG2_MitoMembPot_24h_dn>  (8) 
0.0

>  <APR_HepG2_MitoMembPot_24h_up>  (8) 
0.0

>  <APR_HepG2_MitoMembPot_72h_dn>  (8) 
0.0

>  <APR_HepG2_MitoMembPot_72h_up>  (8) 
0.0

>  <APR_HepG2_MitoticArrest_24h_dn>  (8) 
0.0

>  <APR_HepG2_MitoticArrest_24h_up>  (8) 
0.0

>  <APR_HepG2_MitoticArrest_72h_dn>  (8) 
0.0

>  <APR_HepG2_MitoticArrest_72h_up>  (8) 
0.0

>  <APR_HepG2_NuclearSize_24h_dn>  (8) 
0.0

>  <APR_HepG2_NuclearSize_24h_up>  (8) 
0.0

>  <APR_HepG2_NuclearSize_72h_dn>  (8) 
0.0

>  <APR_HepG2_NuclearSize_72h_up>  (8) 
0.0

>  <APR_HepG2_OxidativeStress_24h_dn>  (8) 
0.0

>  <APR_HepG2_OxidativeStress_24h_up>  (8) 
0.0

>  <APR_HepG2_OxidativeStress_72h_dn>  (8) 
0.0

>  <APR_HepG2_OxidativeStress_72h_up>  (8) 
0.0

>  <APR_HepG2_StressKinase_24h_dn>  (8) 
0.0

>  <APR_HepG2_StressKinase_24h_up>  (8) 
0.0

>  <APR_HepG2_StressKinase_72h_dn>  (8) 
0.0

>  <APR_HepG2_StressKinase_72h_up>  (8) 
0.0

>  <APR_HepG2_p53Act_24h_dn>  (8) 
0.0

>  <APR_HepG2_p53Act_24h_up>  (8) 
0.0

>  <APR_HepG2_p53Act_72h_dn>  (8) 
0.0

>  <APR_HepG2_p53Act_72h_up>  (8) 
0.0

>  <ATG_AP_1_CIS_dn>  (8) 
0.0

>  <ATG_AP_1_CIS_up>  (8) 
1.0

>  <ATG_AP_2_CIS_dn>  (8) 
0.0

>  <ATG_AP_2_CIS_up>  (8) 
0.0

>  <ATG_AR_TRANS_dn>  (8) 
0.0

>  <ATG_AR_TRANS_up>  (8) 
0.0

>  <ATG_Ahr_CIS_dn>  (8) 
0.0

>  <ATG_Ahr_CIS_up>  (8) 
1.0

>  <ATG_BRE_CIS_up>  (8) 
1.0

>  <ATG_CMV_CIS_dn>  (8) 
0.0

>  <ATG_CMV_CIS_up>  (8) 
1.0

>  <ATG_CRE_CIS_dn>  (8) 
0.0

>  <ATG_CRE_CIS_up>  (8) 
1.0

>  <ATG_C_EBP_CIS_dn>  (8) 
0.0

>  <ATG_C_EBP_CIS_up>  (8) 
0.0

>  <ATG_DR4_LXR_CIS_dn>  (8) 
1.0

>  <ATG_DR4_LXR_CIS_up>  (8) 
0.0

>  <ATG_DR5_CIS_dn>  (8) 
0.0

>  <ATG_DR5_CIS_up>  (8) 
0.0

>  <ATG_EGR_CIS_dn>  (8) 
0.0

>  <ATG_ERE_CIS_dn>  (8) 
0.0

>  <ATG_ERE_CIS_up>  (8) 
1.0

>  <ATG_ERRa_TRANS_dn>  (8) 
0.0

>  <ATG_ERRa_TRANS_up>  (8) 
0.0

>  <ATG_ERRg_TRANS_dn>  (8) 
0.0

>  <ATG_ERRg_TRANS_up>  (8) 
0.0

>  <ATG_E_Box_CIS_dn>  (8) 
0.0

>  <ATG_E_Box_CIS_up>  (8) 
0.0

>  <ATG_Ets_CIS_dn>  (8) 
1.0

>  <ATG_Ets_CIS_up>  (8) 
0.0

>  <ATG_FXR_TRANS_up>  (8) 
0.0

>  <ATG_FoxA2_CIS_dn>  (8) 
0.0

>  <ATG_FoxA2_CIS_up>  (8) 
0.0

>  <ATG_FoxO_CIS_dn>  (8) 
0.0

>  <ATG_FoxO_CIS_up>  (8) 
0.0

>  <ATG_GAL4_TRANS_dn>  (8) 
0.0

>  <ATG_GAL4_TRANS_up>  (8) 
0.0

>  <ATG_GATA_CIS_dn>  (8) 
0.0

>  <ATG_GATA_CIS_up>  (8) 
0.0

>  <ATG_GLI_CIS_up>  (8) 
0.0

>  <ATG_GRE_CIS_dn>  (8) 
0.0

>  <ATG_GR_TRANS_dn>  (8) 
0.0

>  <ATG_GR_TRANS_up>  (8) 
0.0

>  <ATG_HIF1a_CIS_dn>  (8) 
0.0

>  <ATG_HIF1a_CIS_up>  (8) 
0.0

>  <ATG_HNF4a_TRANS_dn>  (8) 
0.0

>  <ATG_HNF4a_TRANS_up>  (8) 
0.0

>  <ATG_HNF6_CIS_dn>  (8) 
0.0

>  <ATG_HNF6_CIS_up>  (8) 
0.0

>  <ATG_HSE_CIS_dn>  (8) 
0.0

>  <ATG_HSE_CIS_up>  (8) 
1.0

>  <ATG_IR1_CIS_dn>  (8) 
0.0

>  <ATG_IR1_CIS_up>  (8) 
0.0

>  <ATG_ISRE_CIS_dn>  (8) 
1.0

>  <ATG_ISRE_CIS_up>  (8) 
0.0

>  <ATG_LXRb_TRANS_up>  (8) 
0.0

>  <ATG_MRE_CIS_dn>  (8) 
0.0

>  <ATG_MRE_CIS_up>  (8) 
1.0

>  <ATG_M_06_CIS_dn>  (8) 
0.0

>  <ATG_M_06_CIS_up>  (8) 
0.0

>  <ATG_M_06_TRANS_dn>  (8) 
0.0

>  <ATG_M_06_TRANS_up>  (8) 
0.0

>  <ATG_M_19_CIS_dn>  (8) 
0.0

>  <ATG_M_19_CIS_up>  (8) 
0.0

>  <ATG_M_19_TRANS_dn>  (8) 
0.0

>  <ATG_M_19_TRANS_up>  (8) 
0.0

>  <ATG_M_32_CIS_dn>  (8) 
0.0

>  <ATG_M_32_CIS_up>  (8) 
0.0

>  <ATG_M_32_TRANS_dn>  (8) 
0.0

>  <ATG_M_32_TRANS_up>  (8) 
0.0

>  <ATG_M_61_CIS_dn>  (8) 
0.0

>  <ATG_M_61_CIS_up>  (8) 
0.0

>  <ATG_M_61_TRANS_dn>  (8) 
0.0

>  <ATG_M_61_TRANS_up>  (8) 
0.0

>  <ATG_Myb_CIS_dn>  (8) 
0.0

>  <ATG_Myb_CIS_up>  (8) 
0.0

>  <ATG_Myc_CIS_dn>  (8) 
0.0

>  <ATG_Myc_CIS_up>  (8) 
0.0

>  <ATG_NFI_CIS_dn>  (8) 
0.0

>  <ATG_NFI_CIS_up>  (8) 
1.0

>  <ATG_NF_kB_CIS_dn>  (8) 
0.0

>  <ATG_NF_kB_CIS_up>  (8) 
0.0

>  <ATG_NRF1_CIS_dn>  (8) 
0.0

>  <ATG_NRF2_ARE_CIS_dn>  (8) 
0.0

>  <ATG_NRF2_ARE_CIS_up>  (8) 
1.0

>  <ATG_NURR1_TRANS_dn>  (8) 
0.0

>  <ATG_Oct_MLP_CIS_dn>  (8) 
0.0

>  <ATG_Oct_MLP_CIS_up>  (8) 
1.0

>  <ATG_PBREM_CIS_dn>  (8) 
0.0

>  <ATG_PBREM_CIS_up>  (8) 
0.0

>  <ATG_PPARa_TRANS_dn>  (8) 
1.0

>  <ATG_PPARa_TRANS_up>  (8) 
0.0

>  <ATG_PPARd_TRANS_dn>  (8) 
0.0

>  <ATG_PPARd_TRANS_up>  (8) 
0.0

>  <ATG_PPARg_TRANS_dn>  (8) 
0.0

>  <ATG_PPARg_TRANS_up>  (8) 
0.0

>  <ATG_PPRE_CIS_dn>  (8) 
0.0

>  <ATG_PPRE_CIS_up>  (8) 
1.0

>  <ATG_PXRE_CIS_dn>  (8) 
0.0

>  <ATG_PXRE_CIS_up>  (8) 
1.0

>  <ATG_PXR_TRANS_dn>  (8) 
0.0

>  <ATG_PXR_TRANS_up>  (8) 
1.0

>  <ATG_Pax6_CIS_dn>  (8) 
0.0

>  <ATG_Pax6_CIS_up>  (8) 
1.0

>  <ATG_RARa_TRANS_dn>  (8) 
0.0

>  <ATG_RARa_TRANS_up>  (8) 
0.0

>  <ATG_RARb_TRANS_dn>  (8) 
0.0

>  <ATG_RARb_TRANS_up>  (8) 
0.0

>  <ATG_RARg_TRANS_dn>  (8) 
0.0

>  <ATG_RARg_TRANS_up>  (8) 
0.0

>  <ATG_RORE_CIS_dn>  (8) 
0.0

>  <ATG_RORE_CIS_up>  (8) 
0.0

>  <ATG_RORb_TRANS_dn>  (8) 
0.0

>  <ATG_RORb_TRANS_up>  (8) 
0.0

>  <ATG_RORg_TRANS_dn>  (8) 
0.0

>  <ATG_RORg_TRANS_up>  (8) 
0.0

>  <ATG_RXRa_TRANS_dn>  (8) 
0.0

>  <ATG_RXRa_TRANS_up>  (8) 
0.0

>  <ATG_RXRb_TRANS_dn>  (8) 
0.0

>  <ATG_RXRb_TRANS_up>  (8) 
1.0

>  <ATG_SREBP_CIS_dn>  (8) 
0.0

>  <ATG_SREBP_CIS_up>  (8) 
1.0

>  <ATG_STAT3_CIS_dn>  (8) 
0.0

>  <ATG_STAT3_CIS_up>  (8) 
0.0

>  <ATG_Sp1_CIS_dn>  (8) 
0.0

>  <ATG_TAL_CIS_dn>  (8) 
0.0

>  <ATG_TAL_CIS_up>  (8) 
0.0

>  <ATG_TA_CIS_dn>  (8) 
0.0

>  <ATG_TA_CIS_up>  (8) 
0.0

>  <ATG_TCF_b_cat_CIS_dn>  (8) 
1.0

>  <ATG_TCF_b_cat_CIS_up>  (8) 
0.0

>  <ATG_TGFb_CIS_dn>  (8) 
0.0

>  <ATG_THRa1_TRANS_dn>  (8) 
0.0

>  <ATG_THRa1_TRANS_up>  (8) 
0.0

>  <ATG_VDRE_CIS_dn>  (8) 
0.0

>  <ATG_VDRE_CIS_up>  (8) 
1.0

>  <ATG_VDR_TRANS_dn>  (8) 
0.0

>  <ATG_VDR_TRANS_up>  (8) 
0.0

>  <ATG_XTT_Cytotoxicity_up>  (8) 
1.0

>  <ATG_Xbp1_CIS_dn>  (8) 
0.0

>  <ATG_Xbp1_CIS_up>  (8) 
1.0

>  <ATG_p53_CIS_dn>  (8) 
0.0

>  <ATG_p53_CIS_up>  (8) 
0.0

>  <BSK_3C_Eselectin_down>  (8) 
1.0

>  <BSK_3C_Eselectin_up>  (8) 
0.0

>  <BSK_3C_HLADR_up>  (8) 
0.0

>  <BSK_3C_ICAM1_down>  (8) 
0.0

>  <BSK_3C_ICAM1_up>  (8) 
0.0

>  <BSK_3C_IL8_down>  (8) 
1.0

>  <BSK_3C_IL8_up>  (8) 
0.0

>  <BSK_3C_MCP1_down>  (8) 
1.0

>  <BSK_3C_MCP1_up>  (8) 
0.0

>  <BSK_3C_MIG_down>  (8) 
1.0

>  <BSK_3C_MIG_up>  (8) 
0.0

>  <BSK_3C_Proliferation_down>  (8) 
1.0

>  <BSK_3C_Proliferation_up>  (8) 
0.0

>  <BSK_3C_SRB_down>  (8) 
1.0

>  <BSK_3C_SRB_up>  (8) 
0.0

>  <BSK_3C_Thrombomodulin_down>  (8) 
0.0

>  <BSK_3C_Thrombomodulin_up>  (8) 
1.0

>  <BSK_3C_TissueFactor_down>  (8) 
1.0

>  <BSK_3C_TissueFactor_up>  (8) 
0.0

>  <BSK_3C_VCAM1_down>  (8) 
1.0

>  <BSK_3C_VCAM1_up>  (8) 
0.0

>  <BSK_3C_Vis_up>  (8) 
0.0

>  <BSK_3C_uPAR_up>  (8) 
0.0

>  <BSK_4H_Eotaxin3_down>  (8) 
1.0

>  <BSK_4H_Eotaxin3_up>  (8) 
0.0

>  <BSK_4H_MCP1_down>  (8) 
1.0

>  <BSK_4H_MCP1_up>  (8) 
0.0

>  <BSK_4H_Pselectin_down>  (8) 
1.0

>  <BSK_4H_Pselectin_up>  (8) 
0.0

>  <BSK_4H_SRB_down>  (8) 
1.0

>  <BSK_4H_SRB_up>  (8) 
0.0

>  <BSK_4H_VCAM1_down>  (8) 
1.0

>  <BSK_4H_VCAM1_up>  (8) 
0.0

>  <BSK_4H_VEGFRII_down>  (8) 
1.0

>  <BSK_4H_VEGFRII_up>  (8) 
0.0

>  <BSK_4H_uPAR_down>  (8) 
1.0

>  <BSK_4H_uPAR_up>  (8) 
0.0

>  <BSK_BE3C_HLADR_down>  (8) 
1.0

>  <BSK_BE3C_HLADR_up>  (8) 
0.0

>  <BSK_BE3C_IL1a_down>  (8) 
1.0

>  <BSK_BE3C_IL1a_up>  (8) 
0.0

>  <BSK_BE3C_IP10_down>  (8) 
1.0

>  <BSK_BE3C_IP10_up>  (8) 
0.0

>  <BSK_BE3C_MIG_down>  (8) 
0.0

>  <BSK_BE3C_MIG_up>  (8) 
0.0

>  <BSK_BE3C_MMP1_down>  (8) 
1.0

>  <BSK_BE3C_MMP1_up>  (8) 
1.0

>  <BSK_BE3C_PAI1_down>  (8) 
1.0

>  <BSK_BE3C_PAI1_up>  (8) 
0.0

>  <BSK_BE3C_SRB_down>  (8) 
0.0

>  <BSK_BE3C_SRB_up>  (8) 
0.0

>  <BSK_BE3C_TGFb1_down>  (8) 
1.0

>  <BSK_BE3C_TGFb1_up>  (8) 
0.0

>  <BSK_BE3C_tPA_down>  (8) 
1.0

>  <BSK_BE3C_tPA_up>  (8) 
0.0

>  <BSK_BE3C_uPAR_down>  (8) 
0.0

>  <BSK_BE3C_uPAR_up>  (8) 
0.0

>  <BSK_BE3C_uPA_down>  (8) 
0.0

>  <BSK_BE3C_uPA_up>  (8) 
0.0

>  <BSK_CASM3C_HLADR_down>  (8) 
0.0

>  <BSK_CASM3C_HLADR_up>  (8) 
0.0

>  <BSK_CASM3C_IL6_down>  (8) 
0.0

>  <BSK_CASM3C_IL6_up>  (8) 
0.0

>  <BSK_CASM3C_IL8_down>  (8) 
1.0

>  <BSK_CASM3C_IL8_up>  (8) 
0.0

>  <BSK_CASM3C_LDLR_down>  (8) 
1.0

>  <BSK_CASM3C_LDLR_up>  (8) 
0.0

>  <BSK_CASM3C_MCP1_down>  (8) 
0.0

>  <BSK_CASM3C_MCP1_up>  (8) 
0.0

>  <BSK_CASM3C_MCSF_down>  (8) 
0.0

>  <BSK_CASM3C_MCSF_up>  (8) 
0.0

>  <BSK_CASM3C_MIG_down>  (8) 
0.0

>  <BSK_CASM3C_MIG_up>  (8) 
0.0

>  <BSK_CASM3C_Proliferation_down>  (8) 
1.0

>  <BSK_CASM3C_Proliferation_up>  (8) 
0.0

>  <BSK_CASM3C_SAA_down>  (8) 
1.0

>  <BSK_CASM3C_SAA_up>  (8) 
0.0

>  <BSK_CASM3C_SRB_down>  (8) 
1.0

>  <BSK_CASM3C_SRB_up>  (8) 
0.0

>  <BSK_CASM3C_Thrombomodulin_down>  (8) 
0.0

>  <BSK_CASM3C_Thrombomodulin_up>  (8) 
1.0

>  <BSK_CASM3C_TissueFactor_down>  (8) 
0.0

>  <BSK_CASM3C_TissueFactor_up>  (8) 
0.0

>  <BSK_CASM3C_VCAM1_down>  (8) 
1.0

>  <BSK_CASM3C_VCAM1_up>  (8) 
0.0

>  <BSK_CASM3C_uPAR_down>  (8) 
0.0

>  <BSK_CASM3C_uPAR_up>  (8) 
0.0

>  <BSK_KF3CT_ICAM1_down>  (8) 
0.0

>  <BSK_KF3CT_ICAM1_up>  (8) 
0.0

>  <BSK_KF3CT_IL1a_down>  (8) 
1.0

>  <BSK_KF3CT_IL1a_up>  (8) 
0.0

>  <BSK_KF3CT_IP10_down>  (8) 
1.0

>  <BSK_KF3CT_IP10_up>  (8) 
0.0

>  <BSK_KF3CT_MCP1_down>  (8) 
1.0

>  <BSK_KF3CT_MCP1_up>  (8) 
0.0

>  <BSK_KF3CT_MMP9_down>  (8) 
1.0

>  <BSK_KF3CT_MMP9_up>  (8) 
0.0

>  <BSK_KF3CT_SRB_down>  (8) 
1.0

>  <BSK_KF3CT_SRB_up>  (8) 
0.0

>  <BSK_KF3CT_TGFb1_down>  (8) 
1.0

>  <BSK_KF3CT_TGFb1_up>  (8) 
0.0

>  <BSK_KF3CT_TIMP2_down>  (8) 
1.0

>  <BSK_KF3CT_TIMP2_up>  (8) 
0.0

>  <BSK_KF3CT_uPA_down>  (8) 
1.0

>  <BSK_KF3CT_uPA_up>  (8) 
0.0

>  <BSK_LPS_CD40_down>  (8) 
1.0

>  <BSK_LPS_CD40_up>  (8) 
0.0

>  <BSK_LPS_Eselectin_down>  (8) 
1.0

>  <BSK_LPS_Eselectin_up>  (8) 
0.0

>  <BSK_LPS_IL1a_down>  (8) 
1.0

>  <BSK_LPS_IL1a_up>  (8) 
0.0

>  <BSK_LPS_IL8_down>  (8) 
1.0

>  <BSK_LPS_IL8_up>  (8) 
0.0

>  <BSK_LPS_MCP1_down>  (8) 
1.0

>  <BSK_LPS_MCP1_up>  (8) 
0.0

>  <BSK_LPS_MCSF_down>  (8) 
1.0

>  <BSK_LPS_MCSF_up>  (8) 
0.0

>  <BSK_LPS_PGE2_down>  (8) 
1.0

>  <BSK_LPS_PGE2_up>  (8) 
0.0

>  <BSK_LPS_SRB_down>  (8) 
1.0

>  <BSK_LPS_SRB_up>  (8) 
0.0

>  <BSK_LPS_TNFa_down>  (8) 
1.0

>  <BSK_LPS_TNFa_up>  (8) 
0.0

>  <BSK_LPS_TissueFactor_down>  (8) 
0.0

>  <BSK_LPS_TissueFactor_up>  (8) 
0.0

>  <BSK_LPS_VCAM1_down>  (8) 
1.0

>  <BSK_LPS_VCAM1_up>  (8) 
0.0

>  <BSK_SAg_CD38_down>  (8) 
1.0

>  <BSK_SAg_CD38_up>  (8) 
0.0

>  <BSK_SAg_CD40_down>  (8) 
1.0

>  <BSK_SAg_CD40_up>  (8) 
0.0

>  <BSK_SAg_CD69_down>  (8) 
1.0

>  <BSK_SAg_CD69_up>  (8) 
0.0

>  <BSK_SAg_Eselectin_down>  (8) 
1.0

>  <BSK_SAg_Eselectin_up>  (8) 
0.0

>  <BSK_SAg_IL8_down>  (8) 
1.0

>  <BSK_SAg_IL8_up>  (8) 
0.0

>  <BSK_SAg_MCP1_down>  (8) 
1.0

>  <BSK_SAg_MCP1_up>  (8) 
0.0

>  <BSK_SAg_MIG_down>  (8) 
1.0

>  <BSK_SAg_MIG_up>  (8) 
0.0

>  <BSK_SAg_PBMCCytotoxicity_down>  (8) 
1.0

>  <BSK_SAg_PBMCCytotoxicity_up>  (8) 
0.0

>  <BSK_SAg_Proliferation_down>  (8) 
1.0

>  <BSK_SAg_Proliferation_up>  (8) 
0.0

>  <BSK_SAg_SRB_down>  (8) 
1.0

>  <BSK_SAg_SRB_up>  (8) 
0.0

>  <BSK_hDFCGF_CollagenIII_down>  (8) 
1.0

>  <BSK_hDFCGF_CollagenIII_up>  (8) 
0.0

>  <BSK_hDFCGF_EGFR_down>  (8) 
0.0

>  <BSK_hDFCGF_EGFR_up>  (8) 
0.0

>  <BSK_hDFCGF_IL8_down>  (8) 
1.0

>  <BSK_hDFCGF_IL8_up>  (8) 
0.0

>  <BSK_hDFCGF_IP10_down>  (8) 
1.0

>  <BSK_hDFCGF_IP10_up>  (8) 
0.0

>  <BSK_hDFCGF_MCSF_down>  (8) 
1.0

>  <BSK_hDFCGF_MCSF_up>  (8) 
0.0

>  <BSK_hDFCGF_MIG_down>  (8) 
1.0

>  <BSK_hDFCGF_MIG_up>  (8) 
0.0

>  <BSK_hDFCGF_MMP1_down>  (8) 
1.0

>  <BSK_hDFCGF_MMP1_up>  (8) 
0.0

>  <BSK_hDFCGF_PAI1_down>  (8) 
1.0

>  <BSK_hDFCGF_PAI1_up>  (8) 
0.0

>  <BSK_hDFCGF_Proliferation_down>  (8) 
1.0

>  <BSK_hDFCGF_Proliferation_up>  (8) 
0.0

>  <BSK_hDFCGF_SRB_down>  (8) 
1.0

>  <BSK_hDFCGF_SRB_up>  (8) 
0.0

>  <BSK_hDFCGF_TIMP1_down>  (8) 
1.0

>  <BSK_hDFCGF_TIMP1_up>  (8) 
0.0

>  <BSK_hDFCGF_VCAM1_down>  (8) 
1.0

>  <BSK_hDFCGF_VCAM1_up>  (8) 
0.0

>  <NCCT_HEK293T_CellTiterGLO>  (8) 
1.0

>  <NCCT_QuantiLum_inhib_2_dn>  (8) 
0.0

>  <NCCT_QuantiLum_inhib_dn>  (8) 
1.0

>  <NCCT_TPO_AUR_dn>  (8) 
1.0

>  <NHEERL_ZF_144hpf_TERATOSCORE_up>  (8) 
1.0

>  <NIS_HEK293T_CTG_Cytotoxicity>  (8) 
1.0

>  <NIS_RAIU_inhibition>  (8) 
1.0

>  <NVS_ADME_hCYP19A1>  (8) 
1.0

>  <NVS_ADME_hCYP19A1_Activator>  (8) 
0.0

>  <NVS_ADME_hCYP2B6>  (8) 
1.0

>  <NVS_ADME_hCYP2B6_Activator>  (8) 
0.0

>  <NVS_ADME_hCYP2C19>  (8) 
1.0

>  <NVS_ADME_hCYP2C19_Activator>  (8) 
0.0

>  <NVS_ADME_hCYP2C9>  (8) 
1.0

>  <NVS_ADME_hCYP2C9_Activator>  (8) 
0.0

>  <NVS_ADME_hCYP3A4>  (8) 
1.0

>  <NVS_ADME_hCYP3A4_Activator>  (8) 
0.0

>  <NVS_ADME_hCYP4F12>  (8) 
1.0

>  <NVS_ADME_hCYP4F12_Activator>  (8) 
0.0

>  <NVS_ENZ_hAChE>  (8) 
0.0

>  <NVS_ENZ_hAChE_Activator>  (8) 
0.0

>  <NVS_ENZ_hAMPKa1>  (8) 
1.0

>  <NVS_ENZ_hAMPKa1_Activator>  (8) 
0.0

>  <NVS_ENZ_hBACE>  (8) 
0.0

>  <NVS_ENZ_hBACE_Activator>  (8) 
0.0

>  <NVS_ENZ_hCK1D>  (8) 
0.0

>  <NVS_ENZ_hCK1D_Activator>  (8) 
0.0

>  <NVS_ENZ_hCSF1R>  (8) 
0.0

>  <NVS_ENZ_hCSF1R_Activator>  (8) 
0.0

>  <NVS_ENZ_hEphB2>  (8) 
0.0

>  <NVS_ENZ_hEphB2_Activator>  (8) 
0.0

>  <NVS_ENZ_hFyn>  (8) 
0.0

>  <NVS_ENZ_hFyn_Activator>  (8) 
0.0

>  <NVS_ENZ_hMMP1>  (8) 
1.0

>  <NVS_ENZ_hMMP1_Activator>  (8) 
0.0

>  <NVS_ENZ_hMMP7>  (8) 
0.0

>  <NVS_ENZ_hMMP7_Activator>  (8) 
0.0

>  <NVS_ENZ_hPTPN1>  (8) 
0.0

>  <NVS_ENZ_hPTPN11>  (8) 
0.0

>  <NVS_ENZ_hPTPN11_Activator>  (8) 
0.0

>  <NVS_ENZ_hPTPN1_Activator>  (8) 
0.0

>  <NVS_ENZ_hRAF1>  (8) 
0.0

>  <NVS_ENZ_hRAF1_Activator>  (8) 
0.0

>  <NVS_ENZ_hSIRT1>  (8) 
1.0

>  <NVS_ENZ_hSIRT1_Activator>  (8) 
0.0

>  <NVS_ENZ_hSIRT2>  (8) 
1.0

>  <NVS_ENZ_hSIRT2_Activator>  (8) 
0.0

>  <NVS_ENZ_hSIRT3>  (8) 
1.0

>  <NVS_ENZ_hSIRT3_Activator>  (8) 
0.0

>  <NVS_ENZ_hTie2>  (8) 
1.0

>  <NVS_ENZ_hTie2_Activator>  (8) 
0.0

>  <NVS_ENZ_hTrkA>  (8) 
1.0

>  <NVS_ENZ_hTrkA_Activator>  (8) 
0.0

>  <NVS_GPCR_g5HT4>  (8) 
1.0

>  <NVS_GPCR_gLTB4>  (8) 
1.0

>  <NVS_GPCR_gMPeripheral_NonSelective>  (8) 
1.0

>  <NVS_GPCR_gOpiateK>  (8) 
1.0

>  <NVS_GPCR_h5HT2A>  (8) 
1.0

>  <NVS_GPCR_h5HT5A>  (8) 
1.0

>  <NVS_GPCR_h5HT6>  (8) 
1.0

>  <NVS_GPCR_h5HT7>  (8) 
1.0

>  <NVS_GPCR_hAT1>  (8) 
0.0

>  <NVS_GPCR_hAdoRA1>  (8) 
1.0

>  <NVS_GPCR_hAdoRA2a>  (8) 
1.0

>  <NVS_GPCR_hAdra2C>  (8) 
1.0

>  <NVS_GPCR_hAdrb1>  (8) 
1.0

>  <NVS_GPCR_hAdrb2>  (8) 
1.0

>  <NVS_GPCR_hAdrb3>  (8) 
0.0

>  <NVS_GPCR_hDRD1>  (8) 
1.0

>  <NVS_GPCR_hDRD2s>  (8) 
1.0

>  <NVS_GPCR_hDRD4.4>  (8) 
1.0

>  <NVS_GPCR_hETB>  (8) 
0.0

>  <NVS_GPCR_hM1>  (8) 
1.0

>  <NVS_GPCR_hM2>  (8) 
1.0

>  <NVS_GPCR_hM4>  (8) 
1.0

>  <NVS_GPCR_hM5>  (8) 
1.0

>  <NVS_GPCR_hORL1>  (8) 
1.0

>  <NVS_GPCR_hOpiate_D1>  (8) 
1.0

>  <NVS_GPCR_hOpiate_mu>  (8) 
1.0

>  <NVS_GPCR_p5HT2C>  (8) 
1.0

>  <NVS_GPCR_rAdra1B>  (8) 
1.0

>  <NVS_GPCR_rAdra1_NonSelective>  (8) 
1.0

>  <NVS_GPCR_rOXT>  (8) 
1.0

>  <NVS_GPCR_rOpiate_NonSelectiveNa>  (8) 
1.0

>  <NVS_GPCR_rTRH>  (8) 
0.0

>  <NVS_GPCR_rmMGluR5>  (8) 
0.0

>  <NVS_IC_rNaCh_site2>  (8) 
1.0

>  <NVS_LGIC_rGluNMDA_Agonist>  (8) 
1.0

>  <NVS_LGIC_rGluNMDA_MK801_Agonist>  (8) 
1.0

>  <NVS_LGIC_rGlyRStrySens>  (8) 
0.0

>  <NVS_MP_hPBR>  (8) 
0.0

>  <NVS_MP_rPBR>  (8) 
1.0

>  <NVS_NR_bPR>  (8) 
1.0

>  <NVS_NR_hCAR_Antagonist>  (8) 
1.0

>  <NVS_NR_hFXR_Antagonist>  (8) 
1.0

>  <NVS_NR_hPPARa>  (8) 
1.0

>  <NVS_NR_hPPARg>  (8) 
1.0

>  <NVS_NR_hPXR>  (8) 
0.0

>  <NVS_NR_hRAR_Antagonist>  (8) 
0.0

>  <NVS_NR_hRARa_Agonist>  (8) 
0.0

>  <NVS_NR_rMR>  (8) 
1.0

>  <NVS_TR_gDAT>  (8) 
1.0

>  <NVS_TR_hAdoT>  (8) 
1.0

>  <NVS_TR_hDAT>  (8) 
1.0

>  <NVS_TR_hNET>  (8) 
1.0

>  <NVS_TR_rVMAT2>  (8) 
1.0

>  <OT_AR_ARSRC1_0480>  (8) 
1.0

>  <OT_AR_ARSRC1_0960>  (8) 
1.0

>  <OT_ER_ERaERa_0480>  (8) 
1.0

>  <OT_ER_ERaERa_1440>  (8) 
1.0

>  <OT_ER_ERaERb_0480>  (8) 
1.0

>  <OT_ER_ERbERb_0480>  (8) 
1.0

>  <OT_ER_ERbERb_1440>  (8) 
1.0

>  <OT_ERa_EREGFP_0480>  (8) 
1.0

>  <TOX21_AP1_BLA_Agonist_ch1>  (8) 
1.0

>  <TOX21_AP1_BLA_Agonist_ch2>  (8) 
0.0

>  <TOX21_AP1_BLA_Agonist_ratio>  (8) 
1.0

>  <TOX21_AP1_BLA_Agonist_viability>  (8) 
1.0

>  <TOX21_ARE_BLA_Agonist_ch1>  (8) 
1.0

>  <TOX21_ARE_BLA_Agonist_ch2>  (8) 
1.0

>  <TOX21_ARE_BLA_agonist_viability>  (8) 
1.0

>  <TOX21_AR_BLA_Agonist_ch1>  (8) 
0.0

>  <TOX21_AR_BLA_Agonist_ch2>  (8) 
0.0

>  <TOX21_AR_BLA_Agonist_ratio>  (8) 
0.0

>  <TOX21_AR_BLA_Antagonist_ch1>  (8) 
0.0

>  <TOX21_AR_BLA_Antagonist_ch2>  (8) 
1.0

>  <TOX21_AR_BLA_Antagonist_ratio>  (8) 
1.0

>  <TOX21_AR_BLA_Antagonist_viability>  (8) 
1.0

>  <TOX21_AR_LUC_MDAKB2_Agonist>  (8) 
0.0

>  <TOX21_AR_LUC_MDAKB2_Agonist_3uM_Nilutamide>  (8) 
0.0

>  <TOX21_AR_LUC_MDAKB2_Agonist_3uM_Nilutamide_viability>  (8) 
0.0

>  <TOX21_AR_LUC_MDAKB2_Antagonist_0.5nM_R1881>  (8) 
1.0

>  <TOX21_AR_LUC_MDAKB2_Antagonist_0.5nM_R1881_viability>  (8) 
0.0

>  <TOX21_AR_LUC_MDAKB2_Antagonist_10nM_R1881>  (8) 
1.0

>  <TOX21_AR_LUC_MDAKB2_Antagonist_10nM_R1881_viability>  (8) 
0.0

>  <TOX21_AhR_LUC_Agonist>  (8) 
1.0

>  <TOX21_Aromatase_Inhibition>  (8) 
1.0

>  <TOX21_Aromatase_Inhibition_viability>  (8) 
1.0

>  <TOX21_AutoFluor_HEK293_Cell_blue>  (8) 
0.0

>  <TOX21_AutoFluor_HEK293_Cell_green>  (8) 
0.0

>  <TOX21_AutoFluor_HEK293_Cell_red>  (8) 
0.0

>  <TOX21_AutoFluor_HEK293_Media_blue>  (8) 
0.0

>  <TOX21_AutoFluor_HEK293_Media_green>  (8) 
0.0

>  <TOX21_AutoFluor_HEK293_Media_red>  (8) 
0.0

>  <TOX21_AutoFluor_HEPG2_Cell_blue>  (8) 
0.0

>  <TOX21_AutoFluor_HEPG2_Cell_green>  (8) 
0.0

>  <TOX21_AutoFluor_HEPG2_Cell_red>  (8) 
0.0

>  <TOX21_AutoFluor_HEPG2_Media_blue>  (8) 
0.0

>  <TOX21_AutoFluor_HEPG2_Media_green>  (8) 
0.0

>  <TOX21_AutoFluor_HEPG2_Media_red>  (8) 
0.0

>  <TOX21_CAR_Agonist>  (8) 
1.0

>  <TOX21_CAR_Antagonist>  (8) 
1.0

>  <TOX21_CAR_Antagonist_viability>  (8) 
1.0

>  <TOX21_CASP3_CHO>  (8) 
0.0

>  <TOX21_CASP3_CHO_viability>  (8) 
1.0

>  <TOX21_CASP3_HEPG2>  (8) 
0.0

>  <TOX21_CASP3_HEPG2_viability>  (8) 
1.0

>  <TOX21_DT40>  (8) 
1.0

>  <TOX21_DT40_100>  (8) 
1.0

>  <TOX21_DT40_657>  (8) 
1.0

>  <TOX21_ELG1_LUC_Agonist>  (8) 
0.0

>  <TOX21_ELG1_LUC_Agonist_viability>  (8) 
0.0

>  <TOX21_ERR_Agonist>  (8) 
0.0

>  <TOX21_ERR_Antagonist>  (8) 
1.0

>  <TOX21_ERa_BLA_Agonist_ch1>  (8) 
1.0

>  <TOX21_ERa_BLA_Agonist_ch2>  (8) 
1.0

>  <TOX21_ERa_BLA_Agonist_ratio>  (8) 
1.0

>  <TOX21_ERa_BLA_Antagonist_ch1>  (8) 
0.0

>  <TOX21_ERa_BLA_Antagonist_ch2>  (8) 
1.0

>  <TOX21_ERa_BLA_Antagonist_ratio>  (8) 
1.0

>  <TOX21_ERa_BLA_Antagonist_viability>  (8) 
1.0

>  <TOX21_ERa_LUC_VM7_Agonist>  (8) 
1.0

>  <TOX21_ERa_LUC_VM7_Agonist_10nM_ICI182780>  (8) 
1.0

>  <TOX21_ERa_LUC_VM7_Agonist_10nM_ICI182780_viability>  (8) 
0.0

>  <TOX21_ERa_LUC_VM7_Antagonist_0.1nM_E2>  (8) 
1.0

>  <TOX21_ERa_LUC_VM7_Antagonist_0.1nM_E2_viability>  (8) 
0.0

>  <TOX21_ERa_LUC_VM7_Antagonist_0.5nM_E2>  (8) 
1.0

>  <TOX21_ERa_LUC_VM7_Antagonist_0.5nM_E2_viability>  (8) 
0.0

>  <TOX21_ERb_BLA_Agonist_ch1>  (8) 
0.0

>  <TOX21_ERb_BLA_Agonist_ch2>  (8) 
0.0

>  <TOX21_ERb_BLA_Agonist_ratio>  (8) 
0.0

>  <TOX21_ERb_BLA_Agonist_viability>  (8) 
1.0

>  <TOX21_ERb_BLA_Antagonist_ch1>  (8) 
0.0

>  <TOX21_ERb_BLA_Antagonist_ch2>  (8) 
1.0

>  <TOX21_ERb_BLA_Antagonist_ratio>  (8) 
1.0

>  <TOX21_ERb_BLA_Antagonist_viability>  (8) 
1.0

>  <TOX21_ESRE_BLA_ch1>  (8) 
0.0

>  <TOX21_ESRE_BLA_ch2>  (8) 
0.0

>  <TOX21_ESRE_BLA_ratio>  (8) 
0.0

>  <TOX21_ESRE_BLA_viability>  (8) 
1.0

>  <TOX21_FXR_BLA_Antagonist_ch1>  (8) 
0.0

>  <TOX21_FXR_BLA_Antagonist_ch2>  (8) 
1.0

>  <TOX21_FXR_BLA_agonist_ch1>  (8) 
0.0

>  <TOX21_FXR_BLA_agonist_ch2>  (8) 
0.0

>  <TOX21_FXR_BLA_agonist_ratio>  (8) 
0.0

>  <TOX21_FXR_BLA_agonist_viability>  (8) 
1.0

>  <TOX21_FXR_BLA_antagonist_ratio>  (8) 
1.0

>  <TOX21_FXR_BLA_antagonist_viability>  (8) 
1.0

>  <TOX21_GR_BLA_Agonist_ch1>  (8) 
1.0

>  <TOX21_GR_BLA_Agonist_ch2>  (8) 
0.0

>  <TOX21_GR_BLA_Agonist_ratio>  (8) 
1.0

>  <TOX21_GR_BLA_Antagonist_ch1>  (8) 
0.0

>  <TOX21_GR_BLA_Antagonist_ch2>  (8) 
1.0

>  <TOX21_GR_BLA_Antagonist_ratio>  (8) 
1.0

>  <TOX21_GR_BLA_Antagonist_viability>  (8) 
1.0

>  <TOX21_H2AX_HTRF_CHO_Agonist_ch1>  (8) 
0.0

>  <TOX21_H2AX_HTRF_CHO_Agonist_ch2>  (8) 
0.0

>  <TOX21_H2AX_HTRF_CHO_Agonist_ratio>  (8) 
1.0

>  <TOX21_H2AX_HTRF_CHO_viability>  (8) 
1.0

>  <TOX21_HDAC_Inhibition>  (8) 
0.0

>  <TOX21_HDAC_Inhibition_viability>  (8) 
0.0

>  <TOX21_HRE_BLA_Agonist_ch1>  (8) 
1.0

>  <TOX21_HRE_BLA_Agonist_ch2>  (8) 
0.0

>  <TOX21_HRE_BLA_Agonist_ratio>  (8) 
1.0

>  <TOX21_HRE_BLA_Agonist_viability>  (8) 
1.0

>  <TOX21_HSE_BLA_agonist_ch1>  (8) 
1.0

>  <TOX21_HSE_BLA_agonist_ch2>  (8) 
0.0

>  <TOX21_HSE_BLA_agonist_ratio>  (8) 
1.0

>  <TOX21_HSE_BLA_agonist_viability>  (8) 
1.0

>  <TOX21_LUC_Biochem>  (8) 
0.0

>  <TOX21_MMP_fitc>  (8) 
1.0

>  <TOX21_MMP_ratio_down>  (8) 
1.0

>  <TOX21_MMP_ratio_up>  (8) 
0.0

>  <TOX21_MMP_rhodamine>  (8) 
1.0

>  <TOX21_MMP_viability>  (8) 
0.0

>  <TOX21_NFkB_BLA_agonist_ch1>  (8) 
1.0

>  <TOX21_NFkB_BLA_agonist_ch2>  (8) 
0.0

>  <TOX21_NFkB_BLA_agonist_ratio>  (8) 
0.0

>  <TOX21_NFkB_BLA_agonist_viability>  (8) 
1.0

>  <TOX21_PGC_ERR_Agonist>  (8) 
0.0

>  <TOX21_PGC_ERR_Antagonist>  (8) 
1.0

>  <TOX21_PGC_ERR_viability>  (8) 
1.0

>  <TOX21_PPARd_BLA_Agonist_viability>  (8) 
1.0

>  <TOX21_PPARd_BLA_Antagonist_ch1>  (8) 
0.0

>  <TOX21_PPARd_BLA_Antagonist_ch2>  (8) 
1.0

>  <TOX21_PPARd_BLA_agonist_ch1>  (8) 
0.0

>  <TOX21_PPARd_BLA_agonist_ch2>  (8) 
0.0

>  <TOX21_PPARd_BLA_agonist_ratio>  (8) 
0.0

>  <TOX21_PPARd_BLA_antagonist_ratio>  (8) 
1.0

>  <TOX21_PPARd_BLA_antagonist_viability>  (8) 
1.0

>  <TOX21_PPARg_BLA_Agonist_ch1>  (8) 
0.0

>  <TOX21_PPARg_BLA_Agonist_ch2>  (8) 
0.0

>  <TOX21_PPARg_BLA_Agonist_ratio>  (8) 
0.0

>  <TOX21_PPARg_BLA_Antagonist_ch1>  (8) 
0.0

>  <TOX21_PPARg_BLA_Antagonist_ch2>  (8) 
1.0

>  <TOX21_PPARg_BLA_antagonist_ratio>  (8) 
1.0

>  <TOX21_PPARg_BLA_antagonist_viability>  (8) 
1.0

>  <TOX21_PR_BLA_Agonist_ch1>  (8) 
1.0

>  <TOX21_PR_BLA_Agonist_ch2>  (8) 
0.0

>  <TOX21_PR_BLA_Agonist_ratio>  (8) 
0.0

>  <TOX21_PR_BLA_Antagonist_ch1>  (8) 
0.0

>  <TOX21_PR_BLA_Antagonist_ch2>  (8) 
1.0

>  <TOX21_PR_BLA_Antagonist_ratio>  (8) 
1.0

>  <TOX21_PR_BLA_Antagonist_viability>  (8) 
1.0

>  <TOX21_PR_BLA_Followup_Agonist_ch1>  (8) 
0.0

>  <TOX21_PR_BLA_Followup_Agonist_ch2>  (8) 
0.0

>  <TOX21_PR_BLA_Followup_Agonist_ratio>  (8) 
0.0

>  <TOX21_PR_BLA_Followup_Agonist_viability>  (8) 
0.0

>  <TOX21_PR_BLA_Followup_Antagonist_ch1>  (8) 
0.0

>  <TOX21_PR_BLA_Followup_Antagonist_ch2>  (8) 
0.0

>  <TOX21_PR_BLA_Followup_Antagonist_ratio>  (8) 
1.0

>  <TOX21_PR_BLA_Followup_Antagonist_viability>  (8) 
0.0

>  <TOX21_PR_LUC_Followup_Agonist>  (8) 
0.0

>  <TOX21_PR_LUC_Followup_Agonist_viability>  (8) 
0.0

>  <TOX21_PR_LUC_Followup_Antagonist>  (8) 
1.0

>  <TOX21_PR_LUC_Followup_Antagonist_viability>  (8) 
0.0

>  <TOX21_PXR_Agonist>  (8) 
0.0

>  <TOX21_PXR_viability>  (8) 
1.0

>  <TOX21_RAR_LUC_Agonist>  (8) 
0.0

>  <TOX21_RAR_LUC_Agonist_viability>  (8) 
0.0

>  <TOX21_RAR_LUC_Antagonist_viability>  (8) 
0.0

>  <TOX21_RORg_LUC_CHO_Antagonist>  (8) 
1.0

>  <TOX21_RORg_LUC_CHO_Antagonist_viability>  (8) 
1.0

>  <TOX21_RT_HEK293_FLO_00hr_viability>  (8) 
0.0

>  <TOX21_RT_HEK293_FLO_08hr_viability>  (8) 
1.0

>  <TOX21_RT_HEK293_FLO_16hr_viability>  (8) 
1.0

>  <TOX21_RT_HEK293_FLO_24hr_viability>  (8) 
1.0

>  <TOX21_RT_HEK293_FLO_32hr_viability>  (8) 
1.0

>  <TOX21_RT_HEK293_FLO_40hr_viability>  (8) 
1.0

>  <TOX21_RT_HEK293_GLO_00hr_viability>  (8) 
0.0

>  <TOX21_RT_HEK293_GLO_08hr_viability>  (8) 
1.0

>  <TOX21_RT_HEK293_GLO_16hr_viability>  (8) 
1.0

>  <TOX21_RT_HEK293_GLO_24hr_viability>  (8) 
1.0

>  <TOX21_RT_HEK293_GLO_32hr_viability>  (8) 
1.0

>  <TOX21_RT_HEK293_GLO_40hr_viability>  (8) 
1.0

>  <TOX21_RT_HEPG2_FLO_00hr_ctrl_viability>  (8) 
0.0

>  <TOX21_RT_HEPG2_FLO_08hr_viability>  (8) 
0.0

>  <TOX21_RT_HEPG2_FLO_16hr_ctrl_viability>  (8) 
1.0

>  <TOX21_RT_HEPG2_FLO_24hr_viability>  (8) 
1.0

>  <TOX21_RT_HEPG2_FLO_32hr_ctrl_viability>  (8) 
1.0

>  <TOX21_RT_HEPG2_GLO_00hr_ctrl_viability>  (8) 
0.0

>  <TOX21_RT_HEPG2_GLO_08hr_ctrl_viability>  (8) 
1.0

>  <TOX21_RT_HEPG2_GLO_16hr_ctrl_viability>  (8) 
1.0

>  <TOX21_RT_HEPG2_GLO_24hr_ctrl_viability>  (8) 
1.0

>  <TOX21_RT_HEPG2_GLO_32hr_ctrl_viability>  (8) 
1.0

>  <TOX21_RT_HEPG2_GLO_40hr_viability>  (8) 
0.0

>  <TOX21_RXR_BLA_Agonist_ch1>  (8) 
0.0

>  <TOX21_RXR_BLA_Agonist_ch2>  (8) 
0.0

>  <TOX21_RXR_BLA_Agonist_ratio>  (8) 
0.0

>  <TOX21_RXR_BLA_Agonist_viability>  (8) 
1.0

>  <TOX21_SBE_BLA_Agonist_ch1>  (8) 
0.0

>  <TOX21_SBE_BLA_Agonist_ch2>  (8) 
0.0

>  <TOX21_SBE_BLA_Agonist_ratio>  (8) 
0.0

>  <TOX21_SBE_BLA_Agonist_viability>  (8) 
0.0

>  <TOX21_SBE_BLA_Antagonist_ch1>  (8) 
0.0

>  <TOX21_SBE_BLA_Antagonist_ch2>  (8) 
1.0

>  <TOX21_SBE_BLA_Antagonist_ratio>  (8) 
1.0

>  <TOX21_SBE_BLA_Antagonist_viability>  (8) 
0.0

>  <TOX21_SSH_3T3_GLI3_Agonist>  (8) 
0.0

>  <TOX21_SSH_3T3_GLI3_Agonist_viability>  (8) 
1.0

>  <TOX21_SSH_3T3_GLI3_Antagonist>  (8) 
1.0

>  <TOX21_SSH_3T3_GLI3_Antagonist_viability>  (8) 
1.0

>  <TOX21_TRHR_HEK293_Agonist>  (8) 
1.0

>  <TOX21_TRHR_HEK293_Antagonist>  (8) 
1.0

>  <TOX21_TR_LUC_GH3_Agonist>  (8) 
0.0

>  <TOX21_TR_LUC_GH3_Antagonist>  (8) 
1.0

>  <TOX21_TR_LUC_GH3_Antagonist_viability>  (8) 
1.0

>  <TOX21_TSHR_Agonist_ch2>  (8) 
0.0

>  <TOX21_TSHR_Antagonist_ch2>  (8) 
0.0

>  <TOX21_TSHR_Antagonist_ratio>  (8) 
0.0

>  <TOX21_TSHR_HTRF_Agonist_ch1>  (8) 
1.0

>  <TOX21_TSHR_HTRF_Antagonist_ch1>  (8) 
0.0

>  <TOX21_TSHR_wt_HTRF_ch1>  (8) 
0.0

>  <TOX21_TSHR_wt_ch2>  (8) 
0.0

>  <TOX21_TSHR_wt_ratio>  (8) 
0.0

>  <TOX21_VDR_BLA_Agonist_viability>  (8) 
1.0

>  <TOX21_VDR_BLA_Antagonist_ch1>  (8) 
0.0

>  <TOX21_VDR_BLA_Antagonist_ch2>  (8) 
0.0

>  <TOX21_VDR_BLA_agonist_ch1>  (8) 
0.0

>  <TOX21_VDR_BLA_agonist_ch2>  (8) 
0.0

>  <TOX21_VDR_BLA_agonist_ratio>  (8) 
0.0

>  <TOX21_VDR_BLA_antagonist_ratio>  (8) 
1.0

>  <TOX21_VDR_BLA_antagonist_viability>  (8) 
1.0

>  <TOX21_p53_BLA_p1_ch1>  (8) 
1.0

>  <TOX21_p53_BLA_p1_ch2>  (8) 
0.0

>  <TOX21_p53_BLA_p1_ratio>  (8) 
1.0

>  <TOX21_p53_BLA_p1_viability>  (8) 
1.0

>  <TOX21_p53_BLA_p2_ch1>  (8) 
1.0

>  <TOX21_p53_BLA_p2_ch2>  (8) 
1.0

>  <TOX21_p53_BLA_p2_ratio>  (8) 
1.0

>  <TOX21_p53_BLA_p2_viability>  (8) 
1.0

>  <TOX21_p53_BLA_p3_ch1>  (8) 
1.0

>  <TOX21_p53_BLA_p3_ch2>  (8) 
1.0

>  <TOX21_p53_BLA_p3_ratio>  (8) 
1.0

>  <TOX21_p53_BLA_p4_ch1>  (8) 
1.0

>  <TOX21_p53_BLA_p4_ch2>  (8) 
0.0

>  <TOX21_p53_BLA_p4_ratio>  (8) 
1.0

>  <TOX21_p53_BLA_p4_viability>  (8) 
1.0

>  <TOX21_p53_BLA_p5_ch1>  (8) 
1.0

>  <TOX21_p53_BLA_p5_ch2>  (8) 
1.0

>  <TOX21_p53_BLA_p5_ratio>  (8) 
1.0

>  <TOX21_p53_BLA_p5_viability>  (8) 
1.0

>  <Tanguay_ZF_120hpf_AXIS_up>  (8) 
1.0

>  <Tanguay_ZF_120hpf_ActivityScore>  (8) 
1.0

>  <Tanguay_ZF_120hpf_BRAI_up>  (8) 
0.0

>  <Tanguay_ZF_120hpf_CFIN_up>  (8) 
1.0

>  <Tanguay_ZF_120hpf_CIRC_up>  (8) 
0.0

>  <Tanguay_ZF_120hpf_EYE_up>  (8) 
1.0

>  <Tanguay_ZF_120hpf_JAW_up>  (8) 
1.0

>  <Tanguay_ZF_120hpf_MORT_up>  (8) 
1.0

>  <Tanguay_ZF_120hpf_NC_up>  (8) 
0.0

>  <Tanguay_ZF_120hpf_OTIC_up>  (8) 
1.0

>  <Tanguay_ZF_120hpf_PE_up>  (8) 
1.0

>  <Tanguay_ZF_120hpf_PFIN_up>  (8) 
1.0

>  <Tanguay_ZF_120hpf_PIG_up>  (8) 
1.0

>  <Tanguay_ZF_120hpf_SNOU_up>  (8) 
1.0

>  <Tanguay_ZF_120hpf_SOMI_up>  (8) 
0.0

>  <Tanguay_ZF_120hpf_SWIM_up>  (8) 
0.0

>  <Tanguay_ZF_120hpf_TRUN_up>  (8) 
1.0

>  <Tanguay_ZF_120hpf_TR_up>  (8) 
1.0

>  <Tanguay_ZF_120hpf_YSE_up>  (8) 
1.0

>  <UPITT_HCI_U2OS_AR_TIF2_Nucleoli_Agonist>  (8) 
1.0

>  <UPITT_HCI_U2OS_AR_TIF2_Nucleoli_Antagonist>  (8) 
1.0

>  <UPITT_HCI_U2OS_AR_TIF2_Nucleoli_Cytoplasm_Ratio_Agonist>  (8) 
1.0

>  <UPITT_HCI_U2OS_AR_TIF2_Nucleoli_Cytoplasm_Ratio_Antagonist>  (8) 
1.0

>  <NVS_NR_mERa>  (8) 
1

$$$$

     RDKit          3D

 20 22  0  0  0  0  0  0  0  0999 V2000
    0.0000    0.0000    0.0000 C   0  0  0  0  0  0  0  0  0  0  0  0
    0.0000    0.0000    0.0000 C   0  0  0  0  0  0  0  0  0  0  0  0
    0.0000    0.0000    0.0000 C   0  0  0  0  0  0  0  0  0  0  0  0
    0.0000    0.0000    0.0000 C   0  0  0  0  0  0  0  0  0  0  0  0
    0.0000    0.0000    0.0000 C   0  0  0  0  0  0  0  0  0  0  0  0
    0.0000    0.0000    0.0000 C   0  0  0  0  0  0  0  0  0  0  0  0
    0.0000    0.0000    0.0000 C   0  0  0  0  0  0  0  0  0  0  0  0
    0.0000    0.0000    0.0000 C   0  0  0  0  0  0  0  0  0  0  0  0
    0.0000    0.0000    0.0000 O   0  0  0  0  0  0  0  0  0  0  0  0
    0.0000    0.0000    0.0000 C   0  0  0  0  0  0  0  0  0  0  0  0
    0.0000    0.0000    0.0000 C   0  0  0  0  0  0  0  0  0  0  0  0
    0.0000    0.0000    0.0000 C   0  0  0  0  0  0  0  0  0  0  0  0
    0.0000    0.0000    0.0000 C   0  0  0  0  0  0  0  0  0  0  0  0
    0.0000    0.0000    0.0000 C   0  0  0  0  0  0  0  0  0  0  0  0
    0.0000    0.0000    0.0000 C   0  0  0  0  0  0  0  0  0  0  0  0
    0.0000    0.0000    0.0000 C   0  0  0  0  0  0  0  0  0  0  0  0
    0.0000    0.0000    0.0000 O   0  0  0  0  0  0  0  0  0  0  0  0
    0.0000    0.0000    0.0000 O   0  0  0  0  0  0  0  0  0  0  0  0
    0.0000    0.0000    0.0000 O   0  0  0  0  0  0  0  0  0  0  0  0
    0.0000    0.0000    0.0000 O   0  0  0  0  0  0  0  0  0  0  0  0
  1  2  2  0
  2  3  1  0
  3  4  2  0
  4  5  1  0
  5  6  2  0
  6  7  1  0
  7  8  2  0
  8  9  1  0
  9 10  1  0
 10 11  2  0
 11 12  1  0
 12 13  2  0
 13 14  1  0
 14 15  2  0
 15 16  1  0
 16 17  2  0
 14 18  1  0
 12 19  1  0
  3 20  1  0
  6  1  1  0
 16  7  1  0
 15 10  1  0
M  END
>  <CASRN>  (9) 
446-72-0

>  <Name>  (9) 
Genistein

>  <Active>  (9) 
27

>  <Inactive>  (9) 
1

>  <Bioactivity>  (9) 
Active

>  <Min LEL>  (9) 
1.0

>  <Max HDT>  (9) 
5.0

>  <Class>  (9) 
1

>  <Code>  (9) 
C446720

>  <NVS_NR_hER>  (9) 
1.0

>  <NVS_NR_cAR>  (9) 
0.0

>  <NVS_NR_hAR>  (9) 
1.0

>  <NVS_NR_rAR>  (9) 
0.0

>  <OT_ER_ERaERb_1440>  (9) 
1.0

>  <OT_FXR_FXRSRC1_0480>  (9) 
1.0

>  <OT_PPARg_PPARgSRC1_1440>  (9) 
0.0

>  <OT_FXR_FXRSRC1_1440>  (9) 
1.0

>  <OT_NURR1_NURR1RXRa_0480>  (9) 
1.0

>  <OT_NURR1_NURR1RXRa_1440>  (9) 
1.0

>  <OT_PPARg_PPARgSRC1_0480>  (9) 
0.0

>  <OT_AR_ARELUC_AG_1440>  (9) 
0.0

>  <OT_ERa_EREGFP_0120>  (9) 
1.0

>  <BSK_3C_HLADR_down>  (9) 
1.0

>  <BSK_3C_Vis_down>  (9) 
1.0

>  <BSK_3C_uPAR_down>  (9) 
1.0

>  <ATG_CAR_TRANS_up>  (9) 
0.0

>  <ATG_E2F_CIS_dn>  (9) 
0.0

>  <ATG_EGR_CIS_up>  (9) 
0.0

>  <ATG_ERa_TRANS_dn>  (9) 
0.0

>  <ATG_ERa_TRANS_up>  (9) 
1.0

>  <ATG_FXR_TRANS_dn>  (9) 
0.0

>  <ATG_GLI_CIS_dn>  (9) 
0.0

>  <ATG_GRE_CIS_up>  (9) 
0.0

>  <ATG_LXRa_TRANS_dn>  (9) 
0.0

>  <ATG_LXRa_TRANS_up>  (9) 
1.0

>  <ATG_NRF1_CIS_up>  (9) 
0.0

>  <ATG_NURR1_TRANS_up>  (9) 
0.0

>  <ATG_Sox_CIS_dn>  (9) 
0.0

>  <ATG_Sox_CIS_up>  (9) 
0.0

>  <ATG_Sp1_CIS_up>  (9) 
1.0

>  <ATG_TGFb_CIS_up>  (9) 
0.0

>  <TOX21_ARE_BLA_agonist_ratio>  (9) 
1.0

>  <TOX21_RAR_LUC_Antagonist>  (9) 
0.0

>  <ATG_LXRb_TRANS_dn>  (9) 
0.0

>  <ATG_CAR_TRANS_dn>  (9) 
0.0

>  <ATG_BRE_CIS_dn>  (9) 
0.0

>  <ATG_E2F_CIS_up>  (9) 
0.0

>  <TOX21_TSHR_Agonist_ratio>  (9) 
0.0

>  <ACEA_ER_80hr>  (9) 
1.0

>  <TOX21_CAR_Agonist_viabillity>  (9) 
0.0

>  <TOX21_PR_BLA_Agonist_viability>  (9) 
0.0

>  <TOX21_RT_HEPG2_FLO_40hr_ctrl_viability>  (9) 
0.0

>  <TOX21_AhR_LUC_Agonist_viability>  (9) 
0.0

>  <TOX21_ERR_viability>  (9) 
0.0

>  <TOX21_p53_BLA_p3_viability>  (9) 
0.0

>  <NVS_NR_hPR>  (9) 
1.0

>  <NVS_NR_hGR>  (9) 
1.0

>  <NVS_NR_bER>  (9) 
1.0

>  <ACEA_AR_agonist_80hr>  (9) 
0.0

>  <ACEA_AR_agonist_AUC_viability>  (9) 
1.0

>  <ACEA_AR_antagonist_80hr>  (9) 
1.0

>  <ACEA_AR_antagonist_AUC_viability>  (9) 
1.0

>  <ACEA_ER_AUC_viability>  (9) 
0.0

>  <APR_HepG2_CellCycleArrest_24h_dn>  (9) 
1.0

>  <APR_HepG2_CellCycleArrest_24h_up>  (9) 
0.0

>  <APR_HepG2_CellCycleArrest_72h_dn>  (9) 
1.0

>  <APR_HepG2_CellCycleArrest_72h_up>  (9) 
0.0

>  <APR_HepG2_CellLoss_24h_dn>  (9) 
1.0

>  <APR_HepG2_CellLoss_24h_up>  (9) 
0.0

>  <APR_HepG2_CellLoss_72h_dn>  (9) 
1.0

>  <APR_HepG2_CellLoss_72h_up>  (9) 
0.0

>  <APR_HepG2_MicrotubuleCSK_24h_dn>  (9) 
0.0

>  <APR_HepG2_MicrotubuleCSK_24h_up>  (9) 
0.0

>  <APR_HepG2_MicrotubuleCSK_72h_dn>  (9) 
0.0

>  <APR_HepG2_MicrotubuleCSK_72h_up>  (9) 
0.0

>  <APR_HepG2_MitoMass_24h_dn>  (9) 
0.0

>  <APR_HepG2_MitoMass_24h_up>  (9) 
0.0

>  <APR_HepG2_MitoMass_72h_dn>  (9) 
0.0

>  <APR_HepG2_MitoMass_72h_up>  (9) 
0.0

>  <APR_HepG2_MitoMembPot_24h_dn>  (9) 
1.0

>  <APR_HepG2_MitoMembPot_24h_up>  (9) 
0.0

>  <APR_HepG2_MitoMembPot_72h_dn>  (9) 
1.0

>  <APR_HepG2_MitoMembPot_72h_up>  (9) 
0.0

>  <APR_HepG2_MitoticArrest_24h_dn>  (9) 
0.0

>  <APR_HepG2_MitoticArrest_24h_up>  (9) 
0.0

>  <APR_HepG2_MitoticArrest_72h_dn>  (9) 
0.0

>  <APR_HepG2_MitoticArrest_72h_up>  (9) 
0.0

>  <APR_HepG2_NuclearSize_24h_dn>  (9) 
0.0

>  <APR_HepG2_NuclearSize_24h_up>  (9) 
0.0

>  <APR_HepG2_NuclearSize_72h_dn>  (9) 
0.0

>  <APR_HepG2_NuclearSize_72h_up>  (9) 
0.0

>  <APR_HepG2_OxidativeStress_24h_dn>  (9) 
0.0

>  <APR_HepG2_OxidativeStress_24h_up>  (9) 
0.0

>  <APR_HepG2_OxidativeStress_72h_dn>  (9) 
0.0

>  <APR_HepG2_OxidativeStress_72h_up>  (9) 
1.0

>  <APR_HepG2_StressKinase_24h_dn>  (9) 
0.0

>  <APR_HepG2_StressKinase_24h_up>  (9) 
0.0

>  <APR_HepG2_StressKinase_72h_dn>  (9) 
0.0

>  <APR_HepG2_StressKinase_72h_up>  (9) 
0.0

>  <APR_HepG2_p53Act_24h_dn>  (9) 
0.0

>  <APR_HepG2_p53Act_24h_up>  (9) 
1.0

>  <APR_HepG2_p53Act_72h_dn>  (9) 
0.0

>  <APR_HepG2_p53Act_72h_up>  (9) 
1.0

>  <ATG_AP_1_CIS_dn>  (9) 
0.0

>  <ATG_AP_1_CIS_up>  (9) 
0.0

>  <ATG_AP_2_CIS_dn>  (9) 
1.0

>  <ATG_AP_2_CIS_up>  (9) 
0.0

>  <ATG_AR_TRANS_dn>  (9) 
0.0

>  <ATG_AR_TRANS_up>  (9) 
0.0

>  <ATG_Ahr_CIS_dn>  (9) 
0.0

>  <ATG_Ahr_CIS_up>  (9) 
0.0

>  <ATG_BRE_CIS_up>  (9) 
0.0

>  <ATG_CMV_CIS_dn>  (9) 
0.0

>  <ATG_CMV_CIS_up>  (9) 
1.0

>  <ATG_CRE_CIS_dn>  (9) 
0.0

>  <ATG_CRE_CIS_up>  (9) 
1.0

>  <ATG_C_EBP_CIS_dn>  (9) 
0.0

>  <ATG_C_EBP_CIS_up>  (9) 
1.0

>  <ATG_DR4_LXR_CIS_dn>  (9) 
0.0

>  <ATG_DR4_LXR_CIS_up>  (9) 
1.0

>  <ATG_DR5_CIS_dn>  (9) 
0.0

>  <ATG_DR5_CIS_up>  (9) 
0.0

>  <ATG_EGR_CIS_dn>  (9) 
0.0

>  <ATG_ERE_CIS_dn>  (9) 
0.0

>  <ATG_ERE_CIS_up>  (9) 
1.0

>  <ATG_ERRa_TRANS_dn>  (9) 
0.0

>  <ATG_ERRa_TRANS_up>  (9) 
0.0

>  <ATG_ERRg_TRANS_dn>  (9) 
0.0

>  <ATG_ERRg_TRANS_up>  (9) 
0.0

>  <ATG_E_Box_CIS_dn>  (9) 
0.0

>  <ATG_E_Box_CIS_up>  (9) 
0.0

>  <ATG_Ets_CIS_dn>  (9) 
0.0

>  <ATG_Ets_CIS_up>  (9) 
0.0

>  <ATG_FXR_TRANS_up>  (9) 
0.0

>  <ATG_FoxA2_CIS_dn>  (9) 
0.0

>  <ATG_FoxA2_CIS_up>  (9) 
0.0

>  <ATG_FoxO_CIS_dn>  (9) 
0.0

>  <ATG_FoxO_CIS_up>  (9) 
0.0

>  <ATG_GAL4_TRANS_dn>  (9) 
0.0

>  <ATG_GAL4_TRANS_up>  (9) 
0.0

>  <ATG_GATA_CIS_dn>  (9) 
0.0

>  <ATG_GATA_CIS_up>  (9) 
0.0

>  <ATG_GLI_CIS_up>  (9) 
0.0

>  <ATG_GRE_CIS_dn>  (9) 
0.0

>  <ATG_GR_TRANS_dn>  (9) 
0.0

>  <ATG_GR_TRANS_up>  (9) 
0.0

>  <ATG_HIF1a_CIS_dn>  (9) 
0.0

>  <ATG_HIF1a_CIS_up>  (9) 
0.0

>  <ATG_HNF4a_TRANS_dn>  (9) 
0.0

>  <ATG_HNF4a_TRANS_up>  (9) 
0.0

>  <ATG_HNF6_CIS_dn>  (9) 
0.0

>  <ATG_HNF6_CIS_up>  (9) 
0.0

>  <ATG_HSE_CIS_dn>  (9) 
0.0

>  <ATG_HSE_CIS_up>  (9) 
0.0

>  <ATG_IR1_CIS_dn>  (9) 
0.0

>  <ATG_IR1_CIS_up>  (9) 
1.0

>  <ATG_ISRE_CIS_dn>  (9) 
0.0

>  <ATG_ISRE_CIS_up>  (9) 
0.0

>  <ATG_LXRb_TRANS_up>  (9) 
0.0

>  <ATG_MRE_CIS_dn>  (9) 
0.0

>  <ATG_MRE_CIS_up>  (9) 
1.0

>  <ATG_M_06_CIS_dn>  (9) 
0.0

>  <ATG_M_06_CIS_up>  (9) 
0.0

>  <ATG_M_06_TRANS_dn>  (9) 
0.0

>  <ATG_M_06_TRANS_up>  (9) 
0.0

>  <ATG_M_19_CIS_dn>  (9) 
0.0

>  <ATG_M_19_CIS_up>  (9) 
0.0

>  <ATG_M_19_TRANS_dn>  (9) 
0.0

>  <ATG_M_19_TRANS_up>  (9) 
0.0

>  <ATG_M_32_CIS_dn>  (9) 
0.0

>  <ATG_M_32_CIS_up>  (9) 
0.0

>  <ATG_M_32_TRANS_dn>  (9) 
0.0

>  <ATG_M_32_TRANS_up>  (9) 
0.0

>  <ATG_M_61_CIS_dn>  (9) 
0.0

>  <ATG_M_61_CIS_up>  (9) 
0.0

>  <ATG_M_61_TRANS_dn>  (9) 
0.0

>  <ATG_M_61_TRANS_up>  (9) 
0.0

>  <ATG_Myb_CIS_dn>  (9) 
0.0

>  <ATG_Myb_CIS_up>  (9) 
0.0

>  <ATG_Myc_CIS_dn>  (9) 
0.0

>  <ATG_Myc_CIS_up>  (9) 
0.0

>  <ATG_NFI_CIS_dn>  (9) 
0.0

>  <ATG_NFI_CIS_up>  (9) 
1.0

>  <ATG_NF_kB_CIS_dn>  (9) 
0.0

>  <ATG_NF_kB_CIS_up>  (9) 
1.0

>  <ATG_NRF1_CIS_dn>  (9) 
0.0

>  <ATG_NRF2_ARE_CIS_dn>  (9) 
0.0

>  <ATG_NRF2_ARE_CIS_up>  (9) 
0.0

>  <ATG_NURR1_TRANS_dn>  (9) 
0.0

>  <ATG_Oct_MLP_CIS_dn>  (9) 
0.0

>  <ATG_Oct_MLP_CIS_up>  (9) 
1.0

>  <ATG_PBREM_CIS_dn>  (9) 
0.0

>  <ATG_PBREM_CIS_up>  (9) 
1.0

>  <ATG_PPARa_TRANS_dn>  (9) 
0.0

>  <ATG_PPARa_TRANS_up>  (9) 
1.0

>  <ATG_PPARd_TRANS_dn>  (9) 
0.0

>  <ATG_PPARd_TRANS_up>  (9) 
0.0

>  <ATG_PPARg_TRANS_dn>  (9) 
0.0

>  <ATG_PPARg_TRANS_up>  (9) 
1.0

>  <ATG_PPRE_CIS_dn>  (9) 
0.0

>  <ATG_PPRE_CIS_up>  (9) 
1.0

>  <ATG_PXRE_CIS_dn>  (9) 
0.0

>  <ATG_PXRE_CIS_up>  (9) 
0.0

>  <ATG_PXR_TRANS_dn>  (9) 
0.0

>  <ATG_PXR_TRANS_up>  (9) 
1.0

>  <ATG_Pax6_CIS_dn>  (9) 
0.0

>  <ATG_Pax6_CIS_up>  (9) 
0.0

>  <ATG_RARa_TRANS_dn>  (9) 
0.0

>  <ATG_RARa_TRANS_up>  (9) 
0.0

>  <ATG_RARb_TRANS_dn>  (9) 
0.0

>  <ATG_RARb_TRANS_up>  (9) 
0.0

>  <ATG_RARg_TRANS_dn>  (9) 
0.0

>  <ATG_RARg_TRANS_up>  (9) 
0.0

>  <ATG_RORE_CIS_dn>  (9) 
0.0

>  <ATG_RORE_CIS_up>  (9) 
0.0

>  <ATG_RORb_TRANS_dn>  (9) 
0.0

>  <ATG_RORb_TRANS_up>  (9) 
0.0

>  <ATG_RORg_TRANS_dn>  (9) 
0.0

>  <ATG_RORg_TRANS_up>  (9) 
0.0

>  <ATG_RXRa_TRANS_dn>  (9) 
0.0

>  <ATG_RXRa_TRANS_up>  (9) 
0.0

>  <ATG_RXRb_TRANS_dn>  (9) 
0.0

>  <ATG_RXRb_TRANS_up>  (9) 
1.0

>  <ATG_SREBP_CIS_dn>  (9) 
0.0

>  <ATG_SREBP_CIS_up>  (9) 
1.0

>  <ATG_STAT3_CIS_dn>  (9) 
0.0

>  <ATG_STAT3_CIS_up>  (9) 
0.0

>  <ATG_Sp1_CIS_dn>  (9) 
0.0

>  <ATG_TAL_CIS_dn>  (9) 
1.0

>  <ATG_TAL_CIS_up>  (9) 
0.0

>  <ATG_TA_CIS_dn>  (9) 
0.0

>  <ATG_TA_CIS_up>  (9) 
0.0

>  <ATG_TCF_b_cat_CIS_dn>  (9) 
0.0

>  <ATG_TCF_b_cat_CIS_up>  (9) 
0.0

>  <ATG_TGFb_CIS_dn>  (9) 
0.0

>  <ATG_THRa1_TRANS_dn>  (9) 
0.0

>  <ATG_THRa1_TRANS_up>  (9) 
0.0

>  <ATG_VDRE_CIS_dn>  (9) 
0.0

>  <ATG_VDRE_CIS_up>  (9) 
0.0

>  <ATG_VDR_TRANS_dn>  (9) 
0.0

>  <ATG_VDR_TRANS_up>  (9) 
0.0

>  <ATG_XTT_Cytotoxicity_up>  (9) 
0.0

>  <ATG_Xbp1_CIS_dn>  (9) 
0.0

>  <ATG_Xbp1_CIS_up>  (9) 
0.0

>  <ATG_p53_CIS_dn>  (9) 
0.0

>  <ATG_p53_CIS_up>  (9) 
0.0

>  <BSK_3C_Eselectin_down>  (9) 
0.0

>  <BSK_3C_Eselectin_up>  (9) 
0.0

>  <BSK_3C_HLADR_up>  (9) 
0.0

>  <BSK_3C_ICAM1_down>  (9) 
0.0

>  <BSK_3C_ICAM1_up>  (9) 
0.0

>  <BSK_3C_IL8_down>  (9) 
1.0

>  <BSK_3C_IL8_up>  (9) 
0.0

>  <BSK_3C_MCP1_down>  (9) 
1.0

>  <BSK_3C_MCP1_up>  (9) 
0.0

>  <BSK_3C_MIG_down>  (9) 
0.0

>  <BSK_3C_MIG_up>  (9) 
0.0

>  <BSK_3C_Proliferation_down>  (9) 
1.0

>  <BSK_3C_Proliferation_up>  (9) 
0.0

>  <BSK_3C_SRB_down>  (9) 
1.0

>  <BSK_3C_SRB_up>  (9) 
0.0

>  <BSK_3C_Thrombomodulin_down>  (9) 
0.0

>  <BSK_3C_Thrombomodulin_up>  (9) 
0.0

>  <BSK_3C_TissueFactor_down>  (9) 
0.0

>  <BSK_3C_TissueFactor_up>  (9) 
0.0

>  <BSK_3C_VCAM1_down>  (9) 
0.0

>  <BSK_3C_VCAM1_up>  (9) 
0.0

>  <BSK_3C_Vis_up>  (9) 
0.0

>  <BSK_3C_uPAR_up>  (9) 
0.0

>  <BSK_4H_Eotaxin3_down>  (9) 
1.0

>  <BSK_4H_Eotaxin3_up>  (9) 
0.0

>  <BSK_4H_MCP1_down>  (9) 
1.0

>  <BSK_4H_MCP1_up>  (9) 
0.0

>  <BSK_4H_Pselectin_down>  (9) 
1.0

>  <BSK_4H_Pselectin_up>  (9) 
0.0

>  <BSK_4H_SRB_down>  (9) 
1.0

>  <BSK_4H_SRB_up>  (9) 
0.0

>  <BSK_4H_VCAM1_down>  (9) 
1.0

>  <BSK_4H_VCAM1_up>  (9) 
0.0

>  <BSK_4H_VEGFRII_down>  (9) 
0.0

>  <BSK_4H_VEGFRII_up>  (9) 
0.0

>  <BSK_4H_uPAR_down>  (9) 
1.0

>  <BSK_4H_uPAR_up>  (9) 
0.0

>  <BSK_BE3C_HLADR_down>  (9) 
0.0

>  <BSK_BE3C_HLADR_up>  (9) 
0.0

>  <BSK_BE3C_IL1a_down>  (9) 
0.0

>  <BSK_BE3C_IL1a_up>  (9) 
0.0

>  <BSK_BE3C_IP10_down>  (9) 
0.0

>  <BSK_BE3C_IP10_up>  (9) 
0.0

>  <BSK_BE3C_MIG_down>  (9) 
0.0

>  <BSK_BE3C_MIG_up>  (9) 
0.0

>  <BSK_BE3C_MMP1_down>  (9) 
1.0

>  <BSK_BE3C_MMP1_up>  (9) 
0.0

>  <BSK_BE3C_PAI1_down>  (9) 
0.0

>  <BSK_BE3C_PAI1_up>  (9) 
0.0

>  <BSK_BE3C_SRB_down>  (9) 
0.0

>  <BSK_BE3C_SRB_up>  (9) 
0.0

>  <BSK_BE3C_TGFb1_down>  (9) 
0.0

>  <BSK_BE3C_TGFb1_up>  (9) 
0.0

>  <BSK_BE3C_tPA_down>  (9) 
1.0

>  <BSK_BE3C_tPA_up>  (9) 
0.0

>  <BSK_BE3C_uPAR_down>  (9) 
0.0

>  <BSK_BE3C_uPAR_up>  (9) 
0.0

>  <BSK_BE3C_uPA_down>  (9) 
1.0

>  <BSK_BE3C_uPA_up>  (9) 
0.0

>  <BSK_CASM3C_HLADR_down>  (9) 
1.0

>  <BSK_CASM3C_HLADR_up>  (9) 
0.0

>  <BSK_CASM3C_IL6_down>  (9) 
1.0

>  <BSK_CASM3C_IL6_up>  (9) 
0.0

>  <BSK_CASM3C_IL8_down>  (9) 
1.0

>  <BSK_CASM3C_IL8_up>  (9) 
0.0

>  <BSK_CASM3C_LDLR_down>  (9) 
0.0

>  <BSK_CASM3C_LDLR_up>  (9) 
0.0

>  <BSK_CASM3C_MCP1_down>  (9) 
1.0

>  <BSK_CASM3C_MCP1_up>  (9) 
0.0

>  <BSK_CASM3C_MCSF_down>  (9) 
0.0

>  <BSK_CASM3C_MCSF_up>  (9) 
0.0

>  <BSK_CASM3C_MIG_down>  (9) 
0.0

>  <BSK_CASM3C_MIG_up>  (9) 
0.0

>  <BSK_CASM3C_Proliferation_down>  (9) 
1.0

>  <BSK_CASM3C_Proliferation_up>  (9) 
0.0

>  <BSK_CASM3C_SAA_down>  (9) 
0.0

>  <BSK_CASM3C_SAA_up>  (9) 
1.0

>  <BSK_CASM3C_SRB_down>  (9) 
0.0

>  <BSK_CASM3C_SRB_up>  (9) 
0.0

>  <BSK_CASM3C_Thrombomodulin_down>  (9) 
0.0

>  <BSK_CASM3C_Thrombomodulin_up>  (9) 
0.0

>  <BSK_CASM3C_TissueFactor_down>  (9) 
0.0

>  <BSK_CASM3C_TissueFactor_up>  (9) 
0.0

>  <BSK_CASM3C_VCAM1_down>  (9) 
0.0

>  <BSK_CASM3C_VCAM1_up>  (9) 
1.0

>  <BSK_CASM3C_uPAR_down>  (9) 
0.0

>  <BSK_CASM3C_uPAR_up>  (9) 
0.0

>  <BSK_KF3CT_ICAM1_down>  (9) 
0.0

>  <BSK_KF3CT_ICAM1_up>  (9) 
0.0

>  <BSK_KF3CT_IL1a_down>  (9) 
0.0

>  <BSK_KF3CT_IL1a_up>  (9) 
0.0

>  <BSK_KF3CT_IP10_down>  (9) 
0.0

>  <BSK_KF3CT_IP10_up>  (9) 
0.0

>  <BSK_KF3CT_MCP1_down>  (9) 
0.0

>  <BSK_KF3CT_MCP1_up>  (9) 
0.0

>  <BSK_KF3CT_MMP9_down>  (9) 
1.0

>  <BSK_KF3CT_MMP9_up>  (9) 
0.0

>  <BSK_KF3CT_SRB_down>  (9) 
0.0

>  <BSK_KF3CT_SRB_up>  (9) 
0.0

>  <BSK_KF3CT_TGFb1_down>  (9) 
0.0

>  <BSK_KF3CT_TGFb1_up>  (9) 
0.0

>  <BSK_KF3CT_TIMP2_down>  (9) 
0.0

>  <BSK_KF3CT_TIMP2_up>  (9) 
0.0

>  <BSK_KF3CT_uPA_down>  (9) 
0.0

>  <BSK_KF3CT_uPA_up>  (9) 
0.0

>  <BSK_LPS_CD40_down>  (9) 
1.0

>  <BSK_LPS_CD40_up>  (9) 
0.0

>  <BSK_LPS_Eselectin_down>  (9) 
1.0

>  <BSK_LPS_Eselectin_up>  (9) 
0.0

>  <BSK_LPS_IL1a_down>  (9) 
1.0

>  <BSK_LPS_IL1a_up>  (9) 
0.0

>  <BSK_LPS_IL8_down>  (9) 
1.0

>  <BSK_LPS_IL8_up>  (9) 
0.0

>  <BSK_LPS_MCP1_down>  (9) 
1.0

>  <BSK_LPS_MCP1_up>  (9) 
0.0

>  <BSK_LPS_MCSF_down>  (9) 
1.0

>  <BSK_LPS_MCSF_up>  (9) 
0.0

>  <BSK_LPS_PGE2_down>  (9) 
1.0

>  <BSK_LPS_PGE2_up>  (9) 
0.0

>  <BSK_LPS_SRB_down>  (9) 
1.0

>  <BSK_LPS_SRB_up>  (9) 
0.0

>  <BSK_LPS_TNFa_down>  (9) 
1.0

>  <BSK_LPS_TNFa_up>  (9) 
0.0

>  <BSK_LPS_TissueFactor_down>  (9) 
1.0

>  <BSK_LPS_TissueFactor_up>  (9) 
0.0

>  <BSK_LPS_VCAM1_down>  (9) 
1.0

>  <BSK_LPS_VCAM1_up>  (9) 
0.0

>  <BSK_SAg_CD38_down>  (9) 
1.0

>  <BSK_SAg_CD38_up>  (9) 
0.0

>  <BSK_SAg_CD40_down>  (9) 
1.0

>  <BSK_SAg_CD40_up>  (9) 
0.0

>  <BSK_SAg_CD69_down>  (9) 
1.0

>  <BSK_SAg_CD69_up>  (9) 
0.0

>  <BSK_SAg_Eselectin_down>  (9) 
1.0

>  <BSK_SAg_Eselectin_up>  (9) 
0.0

>  <BSK_SAg_IL8_down>  (9) 
1.0

>  <BSK_SAg_IL8_up>  (9) 
0.0

>  <BSK_SAg_MCP1_down>  (9) 
1.0

>  <BSK_SAg_MCP1_up>  (9) 
0.0

>  <BSK_SAg_MIG_down>  (9) 
1.0

>  <BSK_SAg_MIG_up>  (9) 
0.0

>  <BSK_SAg_PBMCCytotoxicity_down>  (9) 
1.0

>  <BSK_SAg_PBMCCytotoxicity_up>  (9) 
0.0

>  <BSK_SAg_Proliferation_down>  (9) 
1.0

>  <BSK_SAg_Proliferation_up>  (9) 
0.0

>  <BSK_SAg_SRB_down>  (9) 
1.0

>  <BSK_SAg_SRB_up>  (9) 
0.0

>  <BSK_hDFCGF_CollagenIII_down>  (9) 
0.0

>  <BSK_hDFCGF_CollagenIII_up>  (9) 
0.0

>  <BSK_hDFCGF_EGFR_down>  (9) 
0.0

>  <BSK_hDFCGF_EGFR_up>  (9) 
0.0

>  <BSK_hDFCGF_IL8_down>  (9) 
0.0

>  <BSK_hDFCGF_IL8_up>  (9) 
0.0

>  <BSK_hDFCGF_IP10_down>  (9) 
0.0

>  <BSK_hDFCGF_IP10_up>  (9) 
1.0

>  <BSK_hDFCGF_MCSF_down>  (9) 
0.0

>  <BSK_hDFCGF_MCSF_up>  (9) 
0.0

>  <BSK_hDFCGF_MIG_down>  (9) 
0.0

>  <BSK_hDFCGF_MIG_up>  (9) 
0.0

>  <BSK_hDFCGF_MMP1_down>  (9) 
1.0

>  <BSK_hDFCGF_MMP1_up>  (9) 
0.0

>  <BSK_hDFCGF_PAI1_down>  (9) 
1.0

>  <BSK_hDFCGF_PAI1_up>  (9) 
0.0

>  <BSK_hDFCGF_Proliferation_down>  (9) 
1.0

>  <BSK_hDFCGF_Proliferation_up>  (9) 
0.0

>  <BSK_hDFCGF_SRB_down>  (9) 
1.0

>  <BSK_hDFCGF_SRB_up>  (9) 
0.0

>  <BSK_hDFCGF_TIMP1_down>  (9) 
0.0

>  <BSK_hDFCGF_TIMP1_up>  (9) 
0.0

>  <BSK_hDFCGF_VCAM1_down>  (9) 
0.0

>  <BSK_hDFCGF_VCAM1_up>  (9) 
0.0

>  <CEETOX_H295R_11DCORT_dn>  (9) 
1.0

>  <CEETOX_H295R_11DCORT_up>  (9) 
0.0

>  <CEETOX_H295R_ANDR_dn>  (9) 
1.0

>  <CEETOX_H295R_ANDR_up>  (9) 
0.0

>  <CEETOX_H295R_CORTIC_dn>  (9) 
0.0

>  <CEETOX_H295R_CORTIC_up>  (9) 
0.0

>  <CEETOX_H295R_CORTISOL_dn>  (9) 
1.0

>  <CEETOX_H295R_CORTISOL_up>  (9) 
0.0

>  <CEETOX_H295R_DOC_dn>  (9) 
1.0

>  <CEETOX_H295R_DOC_up>  (9) 
0.0

>  <CEETOX_H295R_ESTRADIOL_dn>  (9) 
0.0

>  <CEETOX_H295R_ESTRADIOL_up>  (9) 
0.0

>  <CEETOX_H295R_ESTRONE_dn>  (9) 
0.0

>  <CEETOX_H295R_ESTRONE_up>  (9) 
1.0

>  <CEETOX_H295R_MTT_cell_viability_dn>  (9) 
1.0

>  <CEETOX_H295R_MTT_cell_viability_up>  (9) 
0.0

>  <CEETOX_H295R_OHPREG_dn>  (9) 
0.0

>  <CEETOX_H295R_OHPREG_up>  (9) 
1.0

>  <CEETOX_H295R_OHPROG_dn>  (9) 
1.0

>  <CEETOX_H295R_OHPROG_up>  (9) 
0.0

>  <CEETOX_H295R_PROG_dn>  (9) 
1.0

>  <CEETOX_H295R_PROG_up>  (9) 
0.0

>  <CEETOX_H295R_TESTO_dn>  (9) 
1.0

>  <CEETOX_H295R_TESTO_up>  (9) 
0.0

>  <NCCT_HEK293T_CellTiterGLO>  (9) 
0.0

>  <NCCT_QuantiLum_inhib_2_dn>  (9) 
1.0

>  <NCCT_QuantiLum_inhib_dn>  (9) 
1.0

>  <NCCT_TPO_AUR_dn>  (9) 
1.0

>  <NHEERL_MED_hDIO1_dn>  (9) 
1.0

>  <NHEERL_ZF_144hpf_TERATOSCORE_up>  (9) 
1.0

>  <NVS_ADME_hCYP2B6>  (9) 
0.0

>  <NVS_ADME_hCYP2B6_Activator>  (9) 
0.0

>  <NVS_ADME_hCYP2C18>  (9) 
0.0

>  <NVS_ADME_hCYP2C18_Activator>  (9) 
0.0

>  <NVS_ADME_hCYP2J2>  (9) 
1.0

>  <NVS_ADME_hCYP2J2_Activator>  (9) 
0.0

>  <NVS_ADME_rCYP2B1>  (9) 
0.0

>  <NVS_ADME_rCYP2B1_Activator>  (9) 
0.0

>  <NVS_ADME_rCYP3A1>  (9) 
1.0

>  <NVS_ADME_rCYP3A1_Activator>  (9) 
0.0

>  <NVS_ADME_rCYP3A2>  (9) 
1.0

>  <NVS_ADME_rCYP3A2_Activator>  (9) 
0.0

>  <NVS_ENZ_hPTPN12>  (9) 
0.0

>  <NVS_ENZ_hPTPN12_Activator>  (9) 
0.0

>  <NVS_ENZ_hPTPRB>  (9) 
0.0

>  <NVS_ENZ_hPTPRB_Activator>  (9) 
1.0

>  <NVS_ENZ_hSIRT1>  (9) 
1.0

>  <NVS_ENZ_hSIRT1_Activator>  (9) 
0.0

>  <NVS_ENZ_oCOX1>  (9) 
0.0

>  <NVS_ENZ_oCOX1_Activator>  (9) 
0.0

>  <NVS_ENZ_rMAOAC>  (9) 
1.0

>  <NVS_ENZ_rMAOAC_Activator>  (9) 
0.0

>  <NVS_ENZ_rMAOAP>  (9) 
1.0

>  <NVS_ENZ_rMAOAP_Activator>  (9) 
0.0

>  <NVS_ENZ_rMAOBC>  (9) 
1.0

>  <NVS_ENZ_rMAOBC_Activator>  (9) 
0.0

>  <NVS_GPCR_bAdoR_NonSelective>  (9) 
1.0

>  <NVS_GPCR_hAdoRA1>  (9) 
1.0

>  <NVS_GPCR_hAdoRA2a>  (9) 
1.0

>  <NVS_GPCR_rAdra1_NonSelective>  (9) 
1.0

>  <NVS_GPCR_rOpiate_NonSelectiveNa>  (9) 
0.0

>  <NVS_MP_hPBR>  (9) 
1.0

>  <NVS_MP_rPBR>  (9) 
0.0

>  <NVS_NR_hFXR_Antagonist>  (9) 
0.0

>  <NVS_NR_hPPARa>  (9) 
0.0

>  <NVS_NR_hPPARg>  (9) 
0.0

>  <NVS_NR_hPXR>  (9) 
0.0

>  <NVS_NR_hRARa_Agonist>  (9) 
0.0

>  <NVS_TR_rVMAT2>  (9) 
0.0

>  <OT_AR_ARSRC1_0480>  (9) 
0.0

>  <OT_AR_ARSRC1_0960>  (9) 
0.0

>  <OT_ER_ERaERa_0480>  (9) 
1.0

>  <OT_ER_ERaERa_1440>  (9) 
1.0

>  <OT_ER_ERaERb_0480>  (9) 
1.0

>  <OT_ER_ERbERb_0480>  (9) 
1.0

>  <OT_ER_ERbERb_1440>  (9) 
1.0

>  <OT_ERa_EREGFP_0480>  (9) 
1.0

>  <TOX21_AP1_BLA_Agonist_ch1>  (9) 
0.0

>  <TOX21_AP1_BLA_Agonist_ch2>  (9) 
0.0

>  <TOX21_AP1_BLA_Agonist_ratio>  (9) 
0.0

>  <TOX21_AP1_BLA_Agonist_viability>  (9) 
0.0

>  <TOX21_ARE_BLA_Agonist_ch1>  (9) 
0.0

>  <TOX21_ARE_BLA_Agonist_ch2>  (9) 
1.0

>  <TOX21_ARE_BLA_agonist_viability>  (9) 
0.0

>  <TOX21_AR_BLA_Agonist_ch1>  (9) 
0.0

>  <TOX21_AR_BLA_Agonist_ch2>  (9) 
0.0

>  <TOX21_AR_BLA_Agonist_ratio>  (9) 
0.0

>  <TOX21_AR_BLA_Antagonist_ch1>  (9) 
1.0

>  <TOX21_AR_BLA_Antagonist_ch2>  (9) 
1.0

>  <TOX21_AR_BLA_Antagonist_ratio>  (9) 
1.0

>  <TOX21_AR_BLA_Antagonist_viability>  (9) 
0.0

>  <TOX21_AR_LUC_MDAKB2_Agonist>  (9) 
0.0

>  <TOX21_AR_LUC_MDAKB2_Agonist_3uM_Nilutamide>  (9) 
0.0

>  <TOX21_AR_LUC_MDAKB2_Agonist_3uM_Nilutamide_viability>  (9) 
0.0

>  <TOX21_AR_LUC_MDAKB2_Antagonist_0.5nM_R1881>  (9) 
0.0

>  <TOX21_AR_LUC_MDAKB2_Antagonist_0.5nM_R1881_viability>  (9) 
0.0

>  <TOX21_AR_LUC_MDAKB2_Antagonist_10nM_R1881>  (9) 
0.0

>  <TOX21_AR_LUC_MDAKB2_Antagonist_10nM_R1881_viability>  (9) 
0.0

>  <TOX21_AhR_LUC_Agonist>  (9) 
1.0

>  <TOX21_Aromatase_Inhibition>  (9) 
0.0

>  <TOX21_Aromatase_Inhibition_viability>  (9) 
0.0

>  <TOX21_AutoFluor_HEK293_Cell_blue>  (9) 
0.0

>  <TOX21_AutoFluor_HEK293_Cell_green>  (9) 
0.0

>  <TOX21_AutoFluor_HEK293_Cell_red>  (9) 
0.0

>  <TOX21_AutoFluor_HEK293_Media_blue>  (9) 
0.0

>  <TOX21_AutoFluor_HEK293_Media_green>  (9) 
0.0

>  <TOX21_AutoFluor_HEK293_Media_red>  (9) 
0.0

>  <TOX21_AutoFluor_HEPG2_Cell_blue>  (9) 
0.0

>  <TOX21_AutoFluor_HEPG2_Cell_green>  (9) 
0.0

>  <TOX21_AutoFluor_HEPG2_Cell_red>  (9) 
0.0

>  <TOX21_AutoFluor_HEPG2_Media_blue>  (9) 
0.0

>  <TOX21_AutoFluor_HEPG2_Media_green>  (9) 
0.0

>  <TOX21_AutoFluor_HEPG2_Media_red>  (9) 
0.0

>  <TOX21_CAR_Agonist>  (9) 
1.0

>  <TOX21_CAR_Antagonist>  (9) 
0.0

>  <TOX21_CAR_Antagonist_viability>  (9) 
0.0

>  <TOX21_CASP3_CHO>  (9) 
0.0

>  <TOX21_CASP3_CHO_viability>  (9) 
1.0

>  <TOX21_CASP3_HEPG2>  (9) 
0.0

>  <TOX21_CASP3_HEPG2_viability>  (9) 
0.0

>  <TOX21_DT40>  (9) 
1.0

>  <TOX21_DT40_100>  (9) 
1.0

>  <TOX21_DT40_657>  (9) 
1.0

>  <TOX21_ELG1_LUC_Agonist>  (9) 
1.0

>  <TOX21_ELG1_LUC_Agonist_viability>  (9) 
0.0

>  <TOX21_ERR_Agonist>  (9) 
1.0

>  <TOX21_ERR_Antagonist>  (9) 
0.0

>  <TOX21_ERa_BLA_Agonist_ch1>  (9) 
1.0

>  <TOX21_ERa_BLA_Agonist_ch2>  (9) 
1.0

>  <TOX21_ERa_BLA_Agonist_ratio>  (9) 
1.0

>  <TOX21_ERa_BLA_Antagonist_ch1>  (9) 
0.0

>  <TOX21_ERa_BLA_Antagonist_ch2>  (9) 
0.0

>  <TOX21_ERa_BLA_Antagonist_ratio>  (9) 
1.0

>  <TOX21_ERa_BLA_Antagonist_viability>  (9) 
0.0

>  <TOX21_ERa_LUC_VM7_Agonist>  (9) 
1.0

>  <TOX21_ERa_LUC_VM7_Agonist_10nM_ICI182780>  (9) 
1.0

>  <TOX21_ERa_LUC_VM7_Agonist_10nM_ICI182780_viability>  (9) 
0.0

>  <TOX21_ERa_LUC_VM7_Antagonist_0.1nM_E2>  (9) 
0.0

>  <TOX21_ERa_LUC_VM7_Antagonist_0.1nM_E2_viability>  (9) 
0.0

>  <TOX21_ERa_LUC_VM7_Antagonist_0.5nM_E2>  (9) 
0.0

>  <TOX21_ERa_LUC_VM7_Antagonist_0.5nM_E2_viability>  (9) 
0.0

>  <TOX21_ERb_BLA_Agonist_ch1>  (9) 
0.0

>  <TOX21_ERb_BLA_Agonist_ch2>  (9) 
1.0

>  <TOX21_ERb_BLA_Agonist_ratio>  (9) 
1.0

>  <TOX21_ERb_BLA_Agonist_viability>  (9) 
1.0

>  <TOX21_ERb_BLA_Antagonist_ch1>  (9) 
1.0

>  <TOX21_ERb_BLA_Antagonist_ch2>  (9) 
0.0

>  <TOX21_ERb_BLA_Antagonist_ratio>  (9) 
1.0

>  <TOX21_ERb_BLA_Antagonist_viability>  (9) 
0.0

>  <TOX21_ESRE_BLA_ch1>  (9) 
0.0

>  <TOX21_ESRE_BLA_ch2>  (9) 
0.0

>  <TOX21_ESRE_BLA_ratio>  (9) 
0.0

>  <TOX21_ESRE_BLA_viability>  (9) 
0.0

>  <TOX21_FXR_BLA_Antagonist_ch1>  (9) 
0.0

>  <TOX21_FXR_BLA_Antagonist_ch2>  (9) 
1.0

>  <TOX21_FXR_BLA_agonist_ch1>  (9) 
0.0

>  <TOX21_FXR_BLA_agonist_ch2>  (9) 
0.0

>  <TOX21_FXR_BLA_agonist_ratio>  (9) 
0.0

>  <TOX21_FXR_BLA_agonist_viability>  (9) 
0.0

>  <TOX21_FXR_BLA_antagonist_ratio>  (9) 
1.0

>  <TOX21_FXR_BLA_antagonist_viability>  (9) 
0.0

>  <TOX21_GR_BLA_Agonist_ch1>  (9) 
0.0

>  <TOX21_GR_BLA_Agonist_ch2>  (9) 
0.0

>  <TOX21_GR_BLA_Agonist_ratio>  (9) 
0.0

>  <TOX21_GR_BLA_Antagonist_ch1>  (9) 
0.0

>  <TOX21_GR_BLA_Antagonist_ch2>  (9) 
1.0

>  <TOX21_GR_BLA_Antagonist_ratio>  (9) 
0.0

>  <TOX21_GR_BLA_Antagonist_viability>  (9) 
0.0

>  <TOX21_H2AX_HTRF_CHO_Agonist_ch1>  (9) 
0.0

>  <TOX21_H2AX_HTRF_CHO_Agonist_ch2>  (9) 
0.0

>  <TOX21_H2AX_HTRF_CHO_Agonist_ratio>  (9) 
1.0

>  <TOX21_H2AX_HTRF_CHO_viability>  (9) 
0.0

>  <TOX21_HDAC_Inhibition>  (9) 
1.0

>  <TOX21_HDAC_Inhibition_viability>  (9) 
0.0

>  <TOX21_HRE_BLA_Agonist_ch1>  (9) 
0.0

>  <TOX21_HRE_BLA_Agonist_ch2>  (9) 
0.0

>  <TOX21_HRE_BLA_Agonist_ratio>  (9) 
0.0

>  <TOX21_HRE_BLA_Agonist_viability>  (9) 
0.0

>  <TOX21_HSE_BLA_agonist_ch1>  (9) 
0.0

>  <TOX21_HSE_BLA_agonist_ch2>  (9) 
0.0

>  <TOX21_HSE_BLA_agonist_ratio>  (9) 
0.0

>  <TOX21_HSE_BLA_agonist_viability>  (9) 
0.0

>  <TOX21_LUC_Biochem>  (9) 
0.0

>  <TOX21_MMP_fitc>  (9) 
1.0

>  <TOX21_MMP_ratio_down>  (9) 
1.0

>  <TOX21_MMP_ratio_up>  (9) 
0.0

>  <TOX21_MMP_rhodamine>  (9) 
1.0

>  <TOX21_MMP_viability>  (9) 
0.0

>  <TOX21_NFkB_BLA_agonist_ch1>  (9) 
0.0

>  <TOX21_NFkB_BLA_agonist_ch2>  (9) 
0.0

>  <TOX21_NFkB_BLA_agonist_ratio>  (9) 
0.0

>  <TOX21_NFkB_BLA_agonist_viability>  (9) 
0.0

>  <TOX21_PGC_ERR_Agonist>  (9) 
1.0

>  <TOX21_PGC_ERR_Antagonist>  (9) 
0.0

>  <TOX21_PGC_ERR_viability>  (9) 
0.0

>  <TOX21_PPARd_BLA_Agonist_viability>  (9) 
0.0

>  <TOX21_PPARd_BLA_Antagonist_ch1>  (9) 
0.0

>  <TOX21_PPARd_BLA_Antagonist_ch2>  (9) 
0.0

>  <TOX21_PPARd_BLA_agonist_ch1>  (9) 
0.0

>  <TOX21_PPARd_BLA_agonist_ch2>  (9) 
0.0

>  <TOX21_PPARd_BLA_agonist_ratio>  (9) 
0.0

>  <TOX21_PPARd_BLA_antagonist_ratio>  (9) 
1.0

>  <TOX21_PPARd_BLA_antagonist_viability>  (9) 
0.0

>  <TOX21_PPARg_BLA_Agonist_ch1>  (9) 
0.0

>  <TOX21_PPARg_BLA_Agonist_ch2>  (9) 
0.0

>  <TOX21_PPARg_BLA_Agonist_ratio>  (9) 
0.0

>  <TOX21_PPARg_BLA_Antagonist_ch1>  (9) 
0.0

>  <TOX21_PPARg_BLA_Antagonist_ch2>  (9) 
0.0

>  <TOX21_PPARg_BLA_antagonist_ratio>  (9) 
1.0

>  <TOX21_PPARg_BLA_antagonist_viability>  (9) 
0.0

>  <TOX21_PR_BLA_Agonist_ch1>  (9) 
0.0

>  <TOX21_PR_BLA_Agonist_ch2>  (9) 
0.0

>  <TOX21_PR_BLA_Agonist_ratio>  (9) 
0.0

>  <TOX21_PR_BLA_Antagonist_ch1>  (9) 
0.0

>  <TOX21_PR_BLA_Antagonist_ch2>  (9) 
1.0

>  <TOX21_PR_BLA_Antagonist_ratio>  (9) 
1.0

>  <TOX21_PR_BLA_Antagonist_viability>  (9) 
0.0

>  <TOX21_PXR_Agonist>  (9) 
0.0

>  <TOX21_PXR_viability>  (9) 
1.0

>  <TOX21_RAR_LUC_Agonist>  (9) 
1.0

>  <TOX21_RAR_LUC_Agonist_viability>  (9) 
0.0

>  <TOX21_RAR_LUC_Antagonist_viability>  (9) 
0.0

>  <TOX21_RORg_LUC_CHO_Antagonist>  (9) 
0.0

>  <TOX21_RORg_LUC_CHO_Antagonist_viability>  (9) 
0.0

>  <TOX21_RT_HEK293_FLO_00hr_viability>  (9) 
0.0

>  <TOX21_RT_HEK293_FLO_08hr_viability>  (9) 
0.0

>  <TOX21_RT_HEK293_FLO_16hr_viability>  (9) 
0.0

>  <TOX21_RT_HEK293_FLO_24hr_viability>  (9) 
1.0

>  <TOX21_RT_HEK293_FLO_32hr_viability>  (9) 
0.0

>  <TOX21_RT_HEK293_FLO_40hr_viability>  (9) 
0.0

>  <TOX21_RT_HEK293_GLO_00hr_viability>  (9) 
0.0

>  <TOX21_RT_HEK293_GLO_08hr_viability>  (9) 
1.0

>  <TOX21_RT_HEK293_GLO_16hr_viability>  (9) 
1.0

>  <TOX21_RT_HEK293_GLO_24hr_viability>  (9) 
1.0

>  <TOX21_RT_HEK293_GLO_32hr_viability>  (9) 
1.0

>  <TOX21_RT_HEK293_GLO_40hr_viability>  (9) 
1.0

>  <TOX21_RT_HEPG2_FLO_00hr_ctrl_viability>  (9) 
0.0

>  <TOX21_RT_HEPG2_FLO_08hr_viability>  (9) 
0.0

>  <TOX21_RT_HEPG2_FLO_16hr_ctrl_viability>  (9) 
0.0

>  <TOX21_RT_HEPG2_FLO_24hr_viability>  (9) 
0.0

>  <TOX21_RT_HEPG2_FLO_32hr_ctrl_viability>  (9) 
0.0

>  <TOX21_RT_HEPG2_GLO_00hr_ctrl_viability>  (9) 
0.0

>  <TOX21_RT_HEPG2_GLO_08hr_ctrl_viability>  (9) 
0.0

>  <TOX21_RT_HEPG2_GLO_16hr_ctrl_viability>  (9) 
0.0

>  <TOX21_RT_HEPG2_GLO_24hr_ctrl_viability>  (9) 
0.0

>  <TOX21_RT_HEPG2_GLO_32hr_ctrl_viability>  (9) 
0.0

>  <TOX21_RT_HEPG2_GLO_40hr_viability>  (9) 
0.0

>  <TOX21_RXR_BLA_Agonist_ch1>  (9) 
0.0

>  <TOX21_RXR_BLA_Agonist_ch2>  (9) 
0.0

>  <TOX21_RXR_BLA_Agonist_ratio>  (9) 
0.0

>  <TOX21_RXR_BLA_Agonist_viability>  (9) 
0.0

>  <TOX21_SBE_BLA_Agonist_ch1>  (9) 
0.0

>  <TOX21_SBE_BLA_Agonist_ch2>  (9) 
0.0

>  <TOX21_SBE_BLA_Agonist_ratio>  (9) 
0.0

>  <TOX21_SBE_BLA_Agonist_viability>  (9) 
0.0

>  <TOX21_SBE_BLA_Antagonist_ch1>  (9) 
0.0

>  <TOX21_SBE_BLA_Antagonist_ch2>  (9) 
0.0

>  <TOX21_SBE_BLA_Antagonist_ratio>  (9) 
1.0

>  <TOX21_SBE_BLA_Antagonist_viability>  (9) 
0.0

>  <TOX21_SSH_3T3_GLI3_Agonist>  (9) 
0.0

>  <TOX21_SSH_3T3_GLI3_Agonist_viability>  (9) 
0.0

>  <TOX21_SSH_3T3_GLI3_Antagonist>  (9) 
1.0

>  <TOX21_SSH_3T3_GLI3_Antagonist_viability>  (9) 
0.0

>  <TOX21_TRHR_HEK293_Agonist>  (9) 
0.0

>  <TOX21_TRHR_HEK293_Antagonist>  (9) 
0.0

>  <TOX21_TR_LUC_GH3_Agonist>  (9) 
0.0

>  <TOX21_TR_LUC_GH3_Antagonist>  (9) 
1.0

>  <TOX21_TR_LUC_GH3_Antagonist_viability>  (9) 
1.0

>  <TOX21_TSHR_Agonist_ch2>  (9) 
0.0

>  <TOX21_TSHR_Antagonist_ch2>  (9) 
0.0

>  <TOX21_TSHR_Antagonist_ratio>  (9) 
0.0

>  <TOX21_TSHR_HTRF_Agonist_ch1>  (9) 
0.0

>  <TOX21_TSHR_HTRF_Antagonist_ch1>  (9) 
0.0

>  <TOX21_TSHR_wt_HTRF_ch1>  (9) 
0.0

>  <TOX21_TSHR_wt_ch2>  (9) 
0.0

>  <TOX21_TSHR_wt_ratio>  (9) 
0.0

>  <TOX21_VDR_BLA_Agonist_viability>  (9) 
0.0

>  <TOX21_VDR_BLA_Antagonist_ch1>  (9) 
0.0

>  <TOX21_VDR_BLA_Antagonist_ch2>  (9) 
0.0

>  <TOX21_VDR_BLA_agonist_ch1>  (9) 
0.0

>  <TOX21_VDR_BLA_agonist_ch2>  (9) 
0.0

>  <TOX21_VDR_BLA_agonist_ratio>  (9) 
0.0

>  <TOX21_VDR_BLA_antagonist_ratio>  (9) 
0.0

>  <TOX21_VDR_BLA_antagonist_viability>  (9) 
0.0

>  <TOX21_p53_BLA_p1_ch1>  (9) 
0.0

>  <TOX21_p53_BLA_p1_ch2>  (9) 
0.0

>  <TOX21_p53_BLA_p1_ratio>  (9) 
0.0

>  <TOX21_p53_BLA_p1_viability>  (9) 
0.0

>  <TOX21_p53_BLA_p2_ch1>  (9) 
0.0

>  <TOX21_p53_BLA_p2_ch2>  (9) 
1.0

>  <TOX21_p53_BLA_p2_ratio>  (9) 
0.0

>  <TOX21_p53_BLA_p2_viability>  (9) 
0.0

>  <TOX21_p53_BLA_p3_ch1>  (9) 
0.0

>  <TOX21_p53_BLA_p3_ch2>  (9) 
1.0

>  <TOX21_p53_BLA_p3_ratio>  (9) 
0.0

>  <TOX21_p53_BLA_p4_ch1>  (9) 
0.0

>  <TOX21_p53_BLA_p4_ch2>  (9) 
0.0

>  <TOX21_p53_BLA_p4_ratio>  (9) 
0.0

>  <TOX21_p53_BLA_p4_viability>  (9) 
0.0

>  <TOX21_p53_BLA_p5_ch1>  (9) 
0.0

>  <TOX21_p53_BLA_p5_ch2>  (9) 
0.0

>  <TOX21_p53_BLA_p5_ratio>  (9) 
0.0

>  <TOX21_p53_BLA_p5_viability>  (9) 
0.0

>  <Tanguay_ZF_120hpf_AXIS_up>  (9) 
0.0

>  <Tanguay_ZF_120hpf_ActivityScore>  (9) 
1.0

>  <Tanguay_ZF_120hpf_BRAI_up>  (9) 
0.0

>  <Tanguay_ZF_120hpf_CFIN_up>  (9) 
0.0

>  <Tanguay_ZF_120hpf_CIRC_up>  (9) 
0.0

>  <Tanguay_ZF_120hpf_EYE_up>  (9) 
0.0

>  <Tanguay_ZF_120hpf_JAW_up>  (9) 
0.0

>  <Tanguay_ZF_120hpf_MORT_up>  (9) 
1.0

>  <Tanguay_ZF_120hpf_NC_up>  (9) 
0.0

>  <Tanguay_ZF_120hpf_OTIC_up>  (9) 
0.0

>  <Tanguay_ZF_120hpf_PE_up>  (9) 
0.0

>  <Tanguay_ZF_120hpf_PFIN_up>  (9) 
0.0

>  <Tanguay_ZF_120hpf_PIG_up>  (9) 
0.0

>  <Tanguay_ZF_120hpf_SNOU_up>  (9) 
0.0

>  <Tanguay_ZF_120hpf_SOMI_up>  (9) 
0.0

>  <Tanguay_ZF_120hpf_SWIM_up>  (9) 
0.0

>  <Tanguay_ZF_120hpf_TRUN_up>  (9) 
0.0

>  <Tanguay_ZF_120hpf_TR_up>  (9) 
0.0

>  <Tanguay_ZF_120hpf_YSE_up>  (9) 
0.0

>  <UPITT_HCI_U2OS_AR_TIF2_Nucleoli_Agonist>  (9) 
0.0

>  <UPITT_HCI_U2OS_AR_TIF2_Nucleoli_Antagonist>  (9) 
0.0

>  <UPITT_HCI_U2OS_AR_TIF2_Nucleoli_Cytoplasm_Ratio_Agonist>  (9) 
0.0

>  <UPITT_HCI_U2OS_AR_TIF2_Nucleoli_Cytoplasm_Ratio_Antagonist>  (9) 
0.0

>  <NVS_NR_mERa>  (9) 
1.0

$$$$

     RDKit          3D

 22 25  0  0  0  0  0  0  0  0999 V2000
    0.0000    0.0000    0.0000 C   0  0  0  0  0  0  0  0  0  0  0  0
    0.0000    0.0000    0.0000 C   0  0  0  0  0  0  0  0  0  0  0  0
    0.0000    0.0000    0.0000 C   0  0  0  0  0  0  0  0  0  0  0  0
    0.0000    0.0000    0.0000 C   0  0  0  0  0  0  0  0  0  0  0  0
    0.0000    0.0000    0.0000 C   0  0  0  0  0  0  0  0  0  0  0  0
    0.0000    0.0000    0.0000 C   0  0  0  0  0  0  0  0  0  0  0  0
    0.0000    0.0000    0.0000 C   0  0  0  0  0  0  0  0  0  0  0  0
    0.0000    0.0000    0.0000 C   0  0  0  0  0  0  0  0  0  0  0  0
    0.0000    0.0000    0.0000 C   0  0  0  0  0  0  0  0  0  0  0  0
    0.0000    0.0000    0.0000 C   0  0  0  0  0  0  0  0  0  0  0  0
    0.0000    0.0000    0.0000 C   0  0  0  0  0  0  0  0  0  0  0  0
    0.0000    0.0000    0.0000 C   0  0  0  0  0  0  0  0  0  0  0  0
    0.0000    0.0000    0.0000 O   0  0  0  0  0  0  0  0  0  0  0  0
    0.0000    0.0000    0.0000 C   0  0  0  0  0  0  0  0  0  0  0  0
    0.0000    0.0000    0.0000 C   0  0  0  0  0  0  0  0  0  0  0  0
    0.0000    0.0000    0.0000 C   0  0  0  0  0  0  0  0  0  0  0  0
    0.0000    0.0000    0.0000 C   0  0  0  0  0  0  0  0  0  0  0  0
    0.0000    0.0000    0.0000 C   0  0  0  0  0  0  0  0  0  0  0  0
    0.0000    0.0000    0.0000 O   0  0  0  0  0  0  0  0  0  0  0  0
    0.0000    0.0000    0.0000 C   0  0  0  0  0  0  0  0  0  0  0  0
    0.0000    0.0000    0.0000 C   0  0  0  0  0  0  0  0  0  0  0  0
    0.0000    0.0000    0.0000 C   0  0  0  0  0  0  0  0  0  0  0  0
  1  2  1  0
  2  3  1  0
  3  4  1  0
  4  5  1  0
  5  6  1  0
  6  7  1  0
  7  8  1  0
  8  9  1  0
  9 10  1  0
 10 11  1  0
 11 12  3  0
 10 13  1  0
  6 14  1  0
 14 15  1  0
 15 16  1  0
 16 17  2  0
 17 18  1  0
 18 19  2  0
 18 20  1  0
 20 21  1  0
 21 22  1  0
  7  2  1  0
 10  2  1  0
 22  5  1  0
 22 16  1  0
M  END
>  <CASRN>  (10) 
68-22-4

>  <Name>  (10) 
Norethindrone

>  <Active>  (10) 
2

>  <Inactive>  (10) 
0

>  <Bioactivity>  (10) 
Active

>  <Min LEL>  (10) 
2.0

>  <Max HDT>  (10) 
nan

>  <Class>  (10) 
1

>  <Code>  (10) 
C68224

>  <NVS_NR_hER>  (10) 
1.0

>  <NVS_NR_cAR>  (10) 
1.0

>  <NVS_NR_hAR>  (10) 
1.0

>  <NVS_NR_hGR>  (10) 
1.0

>  <NVS_NR_hPR>  (10) 
1.0

>  <NVS_NR_rAR>  (10) 
1.0

>  <OT_ER_ERaERb_1440>  (10) 
1.0

>  <OT_FXR_FXRSRC1_0480>  (10) 
1.0

>  <OT_PPARg_PPARgSRC1_1440>  (10) 
0.0

>  <OT_FXR_FXRSRC1_1440>  (10) 
1.0

>  <OT_NURR1_NURR1RXRa_0480>  (10) 
0.0

>  <OT_NURR1_NURR1RXRa_1440>  (10) 
0.0

>  <OT_PPARg_PPARgSRC1_0480>  (10) 
0.0

>  <OT_AR_ARELUC_AG_1440>  (10) 
1.0

>  <OT_ERa_EREGFP_0120>  (10) 
1.0

>  <BSK_3C_HLADR_down>  (10) 
1.0

>  <BSK_3C_Vis_down>  (10) 
1.0

>  <BSK_3C_uPAR_down>  (10) 
1.0

>  <ATG_CAR_TRANS_up>  (10) 
0.0

>  <ATG_E2F_CIS_dn>  (10) 
0.0

>  <ATG_EGR_CIS_up>  (10) 
0.0

>  <ATG_ERa_TRANS_dn>  (10) 
0.0

>  <ATG_ERa_TRANS_up>  (10) 
1.0

>  <ATG_FXR_TRANS_dn>  (10) 
0.0

>  <ATG_GLI_CIS_dn>  (10) 
0.0

>  <ATG_GRE_CIS_up>  (10) 
0.0

>  <ATG_LXRa_TRANS_dn>  (10) 
0.0

>  <ATG_LXRa_TRANS_up>  (10) 
0.0

>  <ATG_NRF1_CIS_up>  (10) 
0.0

>  <ATG_NURR1_TRANS_up>  (10) 
0.0

>  <ATG_Sox_CIS_dn>  (10) 
0.0

>  <ATG_Sox_CIS_up>  (10) 
0.0

>  <ATG_Sp1_CIS_up>  (10) 
0.0

>  <ATG_TGFb_CIS_up>  (10) 
0.0

>  <TOX21_ARE_BLA_agonist_ratio>  (10) 
1.0

>  <TOX21_RAR_LUC_Antagonist>  (10) 
1.0

>  <ATG_LXRb_TRANS_dn>  (10) 
0.0

>  <ATG_CAR_TRANS_dn>  (10) 
0.0

>  <ATG_BRE_CIS_dn>  (10) 
0.0

>  <ATG_E2F_CIS_up>  (10) 
0.0

>  <TOX21_TSHR_Agonist_ratio>  (10) 
1.0

>  <ACEA_ER_80hr>  (10) 
1.0

>  <TOX21_CAR_Agonist_viabillity>  (10) 
0.0

>  <TOX21_PR_BLA_Agonist_viability>  (10) 
0.0

>  <TOX21_RT_HEPG2_FLO_40hr_ctrl_viability>  (10) 
0.0

>  <TOX21_AhR_LUC_Agonist_viability>  (10) 
0.0

>  <TOX21_ERR_viability>  (10) 
0.0

>  <TOX21_p53_BLA_p3_viability>  (10) 
0.0

>  <NVS_NR_bER>  (10) 
1.0

>  <ACEA_AR_agonist_80hr>  (10) 
1.0

>  <ACEA_AR_agonist_AUC_viability>  (10) 
0.0

>  <ACEA_AR_antagonist_80hr>  (10) 
0.0

>  <ACEA_AR_antagonist_AUC_viability>  (10) 
0.0

>  <ACEA_ER_AUC_viability>  (10) 
0.0

>  <APR_HepG2_CellCycleArrest_24h_dn>  (10) 
0.0

>  <APR_HepG2_CellCycleArrest_24h_up>  (10) 
0.0

>  <APR_HepG2_CellCycleArrest_72h_dn>  (10) 
0.0

>  <APR_HepG2_CellCycleArrest_72h_up>  (10) 
0.0

>  <APR_HepG2_CellLoss_24h_dn>  (10) 
0.0

>  <APR_HepG2_CellLoss_24h_up>  (10) 
0.0

>  <APR_HepG2_CellLoss_72h_dn>  (10) 
0.0

>  <APR_HepG2_CellLoss_72h_up>  (10) 
0.0

>  <APR_HepG2_MicrotubuleCSK_24h_dn>  (10) 
0.0

>  <APR_HepG2_MicrotubuleCSK_24h_up>  (10) 
0.0

>  <APR_HepG2_MicrotubuleCSK_72h_dn>  (10) 
0.0

>  <APR_HepG2_MicrotubuleCSK_72h_up>  (10) 
0.0

>  <APR_HepG2_MitoMass_24h_dn>  (10) 
0.0

>  <APR_HepG2_MitoMass_24h_up>  (10) 
0.0

>  <APR_HepG2_MitoMass_72h_dn>  (10) 
0.0

>  <APR_HepG2_MitoMass_72h_up>  (10) 
0.0

>  <APR_HepG2_MitoMembPot_24h_dn>  (10) 
0.0

>  <APR_HepG2_MitoMembPot_24h_up>  (10) 
0.0

>  <APR_HepG2_MitoMembPot_72h_dn>  (10) 
0.0

>  <APR_HepG2_MitoMembPot_72h_up>  (10) 
0.0

>  <APR_HepG2_MitoticArrest_24h_dn>  (10) 
0.0

>  <APR_HepG2_MitoticArrest_24h_up>  (10) 
0.0

>  <APR_HepG2_MitoticArrest_72h_dn>  (10) 
0.0

>  <APR_HepG2_MitoticArrest_72h_up>  (10) 
0.0

>  <APR_HepG2_NuclearSize_24h_dn>  (10) 
0.0

>  <APR_HepG2_NuclearSize_24h_up>  (10) 
0.0

>  <APR_HepG2_NuclearSize_72h_dn>  (10) 
0.0

>  <APR_HepG2_NuclearSize_72h_up>  (10) 
0.0

>  <APR_HepG2_OxidativeStress_24h_dn>  (10) 
0.0

>  <APR_HepG2_OxidativeStress_24h_up>  (10) 
0.0

>  <APR_HepG2_OxidativeStress_72h_dn>  (10) 
0.0

>  <APR_HepG2_OxidativeStress_72h_up>  (10) 
0.0

>  <APR_HepG2_StressKinase_24h_dn>  (10) 
0.0

>  <APR_HepG2_StressKinase_24h_up>  (10) 
0.0

>  <APR_HepG2_StressKinase_72h_dn>  (10) 
0.0

>  <APR_HepG2_StressKinase_72h_up>  (10) 
0.0

>  <APR_HepG2_p53Act_24h_dn>  (10) 
0.0

>  <APR_HepG2_p53Act_24h_up>  (10) 
0.0

>  <APR_HepG2_p53Act_72h_dn>  (10) 
0.0

>  <APR_HepG2_p53Act_72h_up>  (10) 
0.0

>  <ATG_AP_1_CIS_dn>  (10) 
0.0

>  <ATG_AP_1_CIS_up>  (10) 
0.0

>  <ATG_AP_2_CIS_dn>  (10) 
0.0

>  <ATG_AP_2_CIS_up>  (10) 
0.0

>  <ATG_AR_TRANS_dn>  (10) 
0.0

>  <ATG_AR_TRANS_up>  (10) 
1.0

>  <ATG_Ahr_CIS_dn>  (10) 
1.0

>  <ATG_Ahr_CIS_up>  (10) 
0.0

>  <ATG_BRE_CIS_up>  (10) 
0.0

>  <ATG_CMV_CIS_dn>  (10) 
0.0

>  <ATG_CMV_CIS_up>  (10) 
0.0

>  <ATG_CRE_CIS_dn>  (10) 
0.0

>  <ATG_CRE_CIS_up>  (10) 
0.0

>  <ATG_C_EBP_CIS_dn>  (10) 
0.0

>  <ATG_C_EBP_CIS_up>  (10) 
0.0

>  <ATG_DR4_LXR_CIS_dn>  (10) 
0.0

>  <ATG_DR4_LXR_CIS_up>  (10) 
0.0

>  <ATG_DR5_CIS_dn>  (10) 
0.0

>  <ATG_DR5_CIS_up>  (10) 
0.0

>  <ATG_EGR_CIS_dn>  (10) 
0.0

>  <ATG_ERE_CIS_dn>  (10) 
0.0

>  <ATG_ERE_CIS_up>  (10) 
1.0

>  <ATG_ERRa_TRANS_dn>  (10) 
0.0

>  <ATG_ERRa_TRANS_up>  (10) 
0.0

>  <ATG_ERRg_TRANS_dn>  (10) 
0.0

>  <ATG_ERRg_TRANS_up>  (10) 
0.0

>  <ATG_E_Box_CIS_dn>  (10) 
0.0

>  <ATG_E_Box_CIS_up>  (10) 
0.0

>  <ATG_Ets_CIS_dn>  (10) 
0.0

>  <ATG_Ets_CIS_up>  (10) 
0.0

>  <ATG_FXR_TRANS_up>  (10) 
0.0

>  <ATG_FoxA2_CIS_dn>  (10) 
0.0

>  <ATG_FoxA2_CIS_up>  (10) 
0.0

>  <ATG_FoxO_CIS_dn>  (10) 
0.0

>  <ATG_FoxO_CIS_up>  (10) 
0.0

>  <ATG_GAL4_TRANS_dn>  (10) 
0.0

>  <ATG_GAL4_TRANS_up>  (10) 
0.0

>  <ATG_GATA_CIS_dn>  (10) 
0.0

>  <ATG_GATA_CIS_up>  (10) 
0.0

>  <ATG_GLI_CIS_up>  (10) 
0.0

>  <ATG_GRE_CIS_dn>  (10) 
0.0

>  <ATG_GR_TRANS_dn>  (10) 
0.0

>  <ATG_GR_TRANS_up>  (10) 
0.0

>  <ATG_HIF1a_CIS_dn>  (10) 
0.0

>  <ATG_HIF1a_CIS_up>  (10) 
0.0

>  <ATG_HNF4a_TRANS_dn>  (10) 
0.0

>  <ATG_HNF4a_TRANS_up>  (10) 
0.0

>  <ATG_HNF6_CIS_dn>  (10) 
0.0

>  <ATG_HNF6_CIS_up>  (10) 
0.0

>  <ATG_HSE_CIS_dn>  (10) 
0.0

>  <ATG_HSE_CIS_up>  (10) 
0.0

>  <ATG_IR1_CIS_dn>  (10) 
0.0

>  <ATG_IR1_CIS_up>  (10) 
0.0

>  <ATG_ISRE_CIS_dn>  (10) 
0.0

>  <ATG_ISRE_CIS_up>  (10) 
0.0

>  <ATG_LXRb_TRANS_up>  (10) 
0.0

>  <ATG_MRE_CIS_dn>  (10) 
0.0

>  <ATG_MRE_CIS_up>  (10) 
0.0

>  <ATG_M_06_CIS_dn>  (10) 
0.0

>  <ATG_M_06_CIS_up>  (10) 
0.0

>  <ATG_M_06_TRANS_dn>  (10) 
0.0

>  <ATG_M_06_TRANS_up>  (10) 
0.0

>  <ATG_M_19_CIS_dn>  (10) 
0.0

>  <ATG_M_19_CIS_up>  (10) 
0.0

>  <ATG_M_19_TRANS_dn>  (10) 
0.0

>  <ATG_M_19_TRANS_up>  (10) 
0.0

>  <ATG_M_32_CIS_dn>  (10) 
0.0

>  <ATG_M_32_CIS_up>  (10) 
0.0

>  <ATG_M_32_TRANS_dn>  (10) 
0.0

>  <ATG_M_32_TRANS_up>  (10) 
0.0

>  <ATG_M_61_CIS_dn>  (10) 
0.0

>  <ATG_M_61_CIS_up>  (10) 
0.0

>  <ATG_M_61_TRANS_dn>  (10) 
0.0

>  <ATG_M_61_TRANS_up>  (10) 
0.0

>  <ATG_Myb_CIS_dn>  (10) 
0.0

>  <ATG_Myb_CIS_up>  (10) 
0.0

>  <ATG_Myc_CIS_dn>  (10) 
0.0

>  <ATG_Myc_CIS_up>  (10) 
0.0

>  <ATG_NFI_CIS_dn>  (10) 
0.0

>  <ATG_NFI_CIS_up>  (10) 
0.0

>  <ATG_NF_kB_CIS_dn>  (10) 
1.0

>  <ATG_NF_kB_CIS_up>  (10) 
0.0

>  <ATG_NRF1_CIS_dn>  (10) 
0.0

>  <ATG_NRF2_ARE_CIS_dn>  (10) 
0.0

>  <ATG_NRF2_ARE_CIS_up>  (10) 
1.0

>  <ATG_NURR1_TRANS_dn>  (10) 
0.0

>  <ATG_Oct_MLP_CIS_dn>  (10) 
0.0

>  <ATG_Oct_MLP_CIS_up>  (10) 
0.0

>  <ATG_PBREM_CIS_dn>  (10) 
0.0

>  <ATG_PBREM_CIS_up>  (10) 
0.0

>  <ATG_PPARa_TRANS_dn>  (10) 
0.0

>  <ATG_PPARa_TRANS_up>  (10) 
0.0

>  <ATG_PPARd_TRANS_dn>  (10) 
0.0

>  <ATG_PPARd_TRANS_up>  (10) 
0.0

>  <ATG_PPARg_TRANS_dn>  (10) 
0.0

>  <ATG_PPARg_TRANS_up>  (10) 
0.0

>  <ATG_PPRE_CIS_dn>  (10) 
0.0

>  <ATG_PPRE_CIS_up>  (10) 
0.0

>  <ATG_PXRE_CIS_dn>  (10) 
0.0

>  <ATG_PXRE_CIS_up>  (10) 
1.0

>  <ATG_PXR_TRANS_dn>  (10) 
0.0

>  <ATG_PXR_TRANS_up>  (10) 
0.0

>  <ATG_Pax6_CIS_dn>  (10) 
0.0

>  <ATG_Pax6_CIS_up>  (10) 
0.0

>  <ATG_RARa_TRANS_dn>  (10) 
0.0

>  <ATG_RARa_TRANS_up>  (10) 
0.0

>  <ATG_RARb_TRANS_dn>  (10) 
0.0

>  <ATG_RARb_TRANS_up>  (10) 
0.0

>  <ATG_RARg_TRANS_dn>  (10) 
0.0

>  <ATG_RARg_TRANS_up>  (10) 
0.0

>  <ATG_RORE_CIS_dn>  (10) 
0.0

>  <ATG_RORE_CIS_up>  (10) 
0.0

>  <ATG_RORb_TRANS_dn>  (10) 
0.0

>  <ATG_RORb_TRANS_up>  (10) 
0.0

>  <ATG_RORg_TRANS_dn>  (10) 
0.0

>  <ATG_RORg_TRANS_up>  (10) 
0.0

>  <ATG_RXRa_TRANS_dn>  (10) 
0.0

>  <ATG_RXRa_TRANS_up>  (10) 
0.0

>  <ATG_RXRb_TRANS_dn>  (10) 
0.0

>  <ATG_RXRb_TRANS_up>  (10) 
0.0

>  <ATG_SREBP_CIS_dn>  (10) 
0.0

>  <ATG_SREBP_CIS_up>  (10) 
0.0

>  <ATG_STAT3_CIS_dn>  (10) 
0.0

>  <ATG_STAT3_CIS_up>  (10) 
0.0

>  <ATG_Sp1_CIS_dn>  (10) 
0.0

>  <ATG_TAL_CIS_dn>  (10) 
0.0

>  <ATG_TAL_CIS_up>  (10) 
0.0

>  <ATG_TA_CIS_dn>  (10) 
0.0

>  <ATG_TA_CIS_up>  (10) 
0.0

>  <ATG_TCF_b_cat_CIS_dn>  (10) 
1.0

>  <ATG_TCF_b_cat_CIS_up>  (10) 
0.0

>  <ATG_TGFb_CIS_dn>  (10) 
0.0

>  <ATG_THRa1_TRANS_dn>  (10) 
0.0

>  <ATG_THRa1_TRANS_up>  (10) 
0.0

>  <ATG_VDRE_CIS_dn>  (10) 
0.0

>  <ATG_VDRE_CIS_up>  (10) 
0.0

>  <ATG_VDR_TRANS_dn>  (10) 
0.0

>  <ATG_VDR_TRANS_up>  (10) 
0.0

>  <ATG_XTT_Cytotoxicity_up>  (10) 
0.0

>  <ATG_Xbp1_CIS_dn>  (10) 
0.0

>  <ATG_Xbp1_CIS_up>  (10) 
0.0

>  <ATG_p53_CIS_dn>  (10) 
0.0

>  <ATG_p53_CIS_up>  (10) 
0.0

>  <BSK_3C_Eselectin_down>  (10) 
1.0

>  <BSK_3C_Eselectin_up>  (10) 
0.0

>  <BSK_3C_HLADR_up>  (10) 
0.0

>  <BSK_3C_ICAM1_down>  (10) 
0.0

>  <BSK_3C_ICAM1_up>  (10) 
0.0

>  <BSK_3C_IL8_down>  (10) 
1.0

>  <BSK_3C_IL8_up>  (10) 
0.0

>  <BSK_3C_MCP1_down>  (10) 
1.0

>  <BSK_3C_MCP1_up>  (10) 
0.0

>  <BSK_3C_MIG_down>  (10) 
0.0

>  <BSK_3C_MIG_up>  (10) 
0.0

>  <BSK_3C_Proliferation_down>  (10) 
1.0

>  <BSK_3C_Proliferation_up>  (10) 
0.0

>  <BSK_3C_SRB_down>  (10) 
1.0

>  <BSK_3C_SRB_up>  (10) 
0.0

>  <BSK_3C_Thrombomodulin_down>  (10) 
0.0

>  <BSK_3C_Thrombomodulin_up>  (10) 
0.0

>  <BSK_3C_TissueFactor_down>  (10) 
1.0

>  <BSK_3C_TissueFactor_up>  (10) 
0.0

>  <BSK_3C_VCAM1_down>  (10) 
0.0

>  <BSK_3C_VCAM1_up>  (10) 
0.0

>  <BSK_3C_Vis_up>  (10) 
0.0

>  <BSK_3C_uPAR_up>  (10) 
0.0

>  <BSK_4H_Eotaxin3_down>  (10) 
1.0

>  <BSK_4H_Eotaxin3_up>  (10) 
0.0

>  <BSK_4H_MCP1_down>  (10) 
1.0

>  <BSK_4H_MCP1_up>  (10) 
0.0

>  <BSK_4H_Pselectin_down>  (10) 
0.0

>  <BSK_4H_Pselectin_up>  (10) 
0.0

>  <BSK_4H_SRB_down>  (10) 
1.0

>  <BSK_4H_SRB_up>  (10) 
0.0

>  <BSK_4H_VCAM1_down>  (10) 
1.0

>  <BSK_4H_VCAM1_up>  (10) 
0.0

>  <BSK_4H_VEGFRII_down>  (10) 
1.0

>  <BSK_4H_VEGFRII_up>  (10) 
0.0

>  <BSK_4H_uPAR_down>  (10) 
1.0

>  <BSK_4H_uPAR_up>  (10) 
0.0

>  <BSK_BE3C_HLADR_down>  (10) 
0.0

>  <BSK_BE3C_HLADR_up>  (10) 
0.0

>  <BSK_BE3C_IL1a_down>  (10) 
0.0

>  <BSK_BE3C_IL1a_up>  (10) 
0.0

>  <BSK_BE3C_IP10_down>  (10) 
0.0

>  <BSK_BE3C_IP10_up>  (10) 
0.0

>  <BSK_BE3C_MIG_down>  (10) 
0.0

>  <BSK_BE3C_MIG_up>  (10) 
0.0

>  <BSK_BE3C_MMP1_down>  (10) 
0.0

>  <BSK_BE3C_MMP1_up>  (10) 
0.0

>  <BSK_BE3C_PAI1_down>  (10) 
0.0

>  <BSK_BE3C_PAI1_up>  (10) 
0.0

>  <BSK_BE3C_SRB_down>  (10) 
0.0

>  <BSK_BE3C_SRB_up>  (10) 
0.0

>  <BSK_BE3C_TGFb1_down>  (10) 
0.0

>  <BSK_BE3C_TGFb1_up>  (10) 
0.0

>  <BSK_BE3C_tPA_down>  (10) 
0.0

>  <BSK_BE3C_tPA_up>  (10) 
0.0

>  <BSK_BE3C_uPAR_down>  (10) 
0.0

>  <BSK_BE3C_uPAR_up>  (10) 
0.0

>  <BSK_BE3C_uPA_down>  (10) 
0.0

>  <BSK_BE3C_uPA_up>  (10) 
0.0

>  <BSK_CASM3C_HLADR_down>  (10) 
0.0

>  <BSK_CASM3C_HLADR_up>  (10) 
0.0

>  <BSK_CASM3C_IL6_down>  (10) 
1.0

>  <BSK_CASM3C_IL6_up>  (10) 
0.0

>  <BSK_CASM3C_IL8_down>  (10) 
0.0

>  <BSK_CASM3C_IL8_up>  (10) 
0.0

>  <BSK_CASM3C_LDLR_down>  (10) 
0.0

>  <BSK_CASM3C_LDLR_up>  (10) 
0.0

>  <BSK_CASM3C_MCP1_down>  (10) 
0.0

>  <BSK_CASM3C_MCP1_up>  (10) 
0.0

>  <BSK_CASM3C_MCSF_down>  (10) 
0.0

>  <BSK_CASM3C_MCSF_up>  (10) 
0.0

>  <BSK_CASM3C_MIG_down>  (10) 
0.0

>  <BSK_CASM3C_MIG_up>  (10) 
0.0

>  <BSK_CASM3C_Proliferation_down>  (10) 
1.0

>  <BSK_CASM3C_Proliferation_up>  (10) 
0.0

>  <BSK_CASM3C_SAA_down>  (10) 
0.0

>  <BSK_CASM3C_SAA_up>  (10) 
0.0

>  <BSK_CASM3C_SRB_down>  (10) 
0.0

>  <BSK_CASM3C_SRB_up>  (10) 
0.0

>  <BSK_CASM3C_Thrombomodulin_down>  (10) 
0.0

>  <BSK_CASM3C_Thrombomodulin_up>  (10) 
0.0

>  <BSK_CASM3C_TissueFactor_down>  (10) 
0.0

>  <BSK_CASM3C_TissueFactor_up>  (10) 
0.0

>  <BSK_CASM3C_VCAM1_down>  (10) 
0.0

>  <BSK_CASM3C_VCAM1_up>  (10) 
0.0

>  <BSK_CASM3C_uPAR_down>  (10) 
0.0

>  <BSK_CASM3C_uPAR_up>  (10) 
0.0

>  <BSK_KF3CT_ICAM1_down>  (10) 
0.0

>  <BSK_KF3CT_ICAM1_up>  (10) 
0.0

>  <BSK_KF3CT_IL1a_down>  (10) 
0.0

>  <BSK_KF3CT_IL1a_up>  (10) 
0.0

>  <BSK_KF3CT_IP10_down>  (10) 
0.0

>  <BSK_KF3CT_IP10_up>  (10) 
0.0

>  <BSK_KF3CT_MCP1_down>  (10) 
0.0

>  <BSK_KF3CT_MCP1_up>  (10) 
0.0

>  <BSK_KF3CT_MMP9_down>  (10) 
0.0

>  <BSK_KF3CT_MMP9_up>  (10) 
0.0

>  <BSK_KF3CT_SRB_down>  (10) 
0.0

>  <BSK_KF3CT_SRB_up>  (10) 
0.0

>  <BSK_KF3CT_TGFb1_down>  (10) 
0.0

>  <BSK_KF3CT_TGFb1_up>  (10) 
0.0

>  <BSK_KF3CT_TIMP2_down>  (10) 
0.0

>  <BSK_KF3CT_TIMP2_up>  (10) 
0.0

>  <BSK_KF3CT_uPA_down>  (10) 
0.0

>  <BSK_KF3CT_uPA_up>  (10) 
0.0

>  <BSK_LPS_CD40_down>  (10) 
1.0

>  <BSK_LPS_CD40_up>  (10) 
0.0

>  <BSK_LPS_Eselectin_down>  (10) 
1.0

>  <BSK_LPS_Eselectin_up>  (10) 
0.0

>  <BSK_LPS_IL1a_down>  (10) 
0.0

>  <BSK_LPS_IL1a_up>  (10) 
0.0

>  <BSK_LPS_IL8_down>  (10) 
1.0

>  <BSK_LPS_IL8_up>  (10) 
0.0

>  <BSK_LPS_MCP1_down>  (10) 
1.0

>  <BSK_LPS_MCP1_up>  (10) 
0.0

>  <BSK_LPS_MCSF_down>  (10) 
1.0

>  <BSK_LPS_MCSF_up>  (10) 
0.0

>  <BSK_LPS_PGE2_down>  (10) 
0.0

>  <BSK_LPS_PGE2_up>  (10) 
1.0

>  <BSK_LPS_SRB_down>  (10) 
1.0

>  <BSK_LPS_SRB_up>  (10) 
0.0

>  <BSK_LPS_TNFa_down>  (10) 
0.0

>  <BSK_LPS_TNFa_up>  (10) 
1.0

>  <BSK_LPS_TissueFactor_down>  (10) 
0.0

>  <BSK_LPS_TissueFactor_up>  (10) 
0.0

>  <BSK_LPS_VCAM1_down>  (10) 
1.0

>  <BSK_LPS_VCAM1_up>  (10) 
0.0

>  <BSK_SAg_CD38_down>  (10) 
1.0

>  <BSK_SAg_CD38_up>  (10) 
0.0

>  <BSK_SAg_CD40_down>  (10) 
1.0

>  <BSK_SAg_CD40_up>  (10) 
0.0

>  <BSK_SAg_CD69_down>  (10) 
0.0

>  <BSK_SAg_CD69_up>  (10) 
0.0

>  <BSK_SAg_Eselectin_down>  (10) 
1.0

>  <BSK_SAg_Eselectin_up>  (10) 
0.0

>  <BSK_SAg_IL8_down>  (10) 
0.0

>  <BSK_SAg_IL8_up>  (10) 
0.0

>  <BSK_SAg_MCP1_down>  (10) 
1.0

>  <BSK_SAg_MCP1_up>  (10) 
0.0

>  <BSK_SAg_MIG_down>  (10) 
0.0

>  <BSK_SAg_MIG_up>  (10) 
0.0

>  <BSK_SAg_PBMCCytotoxicity_down>  (10) 
0.0

>  <BSK_SAg_PBMCCytotoxicity_up>  (10) 
0.0

>  <BSK_SAg_Proliferation_down>  (10) 
0.0

>  <BSK_SAg_Proliferation_up>  (10) 
0.0

>  <BSK_SAg_SRB_down>  (10) 
1.0

>  <BSK_SAg_SRB_up>  (10) 
0.0

>  <BSK_hDFCGF_CollagenIII_down>  (10) 
0.0

>  <BSK_hDFCGF_CollagenIII_up>  (10) 
0.0

>  <BSK_hDFCGF_EGFR_down>  (10) 
0.0

>  <BSK_hDFCGF_EGFR_up>  (10) 
0.0

>  <BSK_hDFCGF_IL8_down>  (10) 
0.0

>  <BSK_hDFCGF_IL8_up>  (10) 
0.0

>  <BSK_hDFCGF_IP10_down>  (10) 
0.0

>  <BSK_hDFCGF_IP10_up>  (10) 
0.0

>  <BSK_hDFCGF_MCSF_down>  (10) 
0.0

>  <BSK_hDFCGF_MCSF_up>  (10) 
0.0

>  <BSK_hDFCGF_MIG_down>  (10) 
0.0

>  <BSK_hDFCGF_MIG_up>  (10) 
0.0

>  <BSK_hDFCGF_MMP1_down>  (10) 
0.0

>  <BSK_hDFCGF_MMP1_up>  (10) 
0.0

>  <BSK_hDFCGF_PAI1_down>  (10) 
0.0

>  <BSK_hDFCGF_PAI1_up>  (10) 
0.0

>  <BSK_hDFCGF_Proliferation_down>  (10) 
0.0

>  <BSK_hDFCGF_Proliferation_up>  (10) 
0.0

>  <BSK_hDFCGF_SRB_down>  (10) 
0.0

>  <BSK_hDFCGF_SRB_up>  (10) 
0.0

>  <BSK_hDFCGF_TIMP1_down>  (10) 
0.0

>  <BSK_hDFCGF_TIMP1_up>  (10) 
0.0

>  <BSK_hDFCGF_VCAM1_down>  (10) 
0.0

>  <BSK_hDFCGF_VCAM1_up>  (10) 
0.0

>  <CEETOX_H295R_11DCORT_dn>  (10) 
1.0

>  <CEETOX_H295R_11DCORT_up>  (10) 
0.0

>  <CEETOX_H295R_ANDR_dn>  (10) 
1.0

>  <CEETOX_H295R_ANDR_up>  (10) 
0.0

>  <CEETOX_H295R_CORTIC_dn>  (10) 
0.0

>  <CEETOX_H295R_CORTIC_up>  (10) 
0.0

>  <CEETOX_H295R_CORTISOL_dn>  (10) 
1.0

>  <CEETOX_H295R_CORTISOL_up>  (10) 
0.0

>  <CEETOX_H295R_DOC_dn>  (10) 
1.0

>  <CEETOX_H295R_DOC_up>  (10) 
0.0

>  <CEETOX_H295R_ESTRADIOL_dn>  (10) 
1.0

>  <CEETOX_H295R_ESTRADIOL_up>  (10) 
0.0

>  <CEETOX_H295R_ESTRONE_dn>  (10) 
1.0

>  <CEETOX_H295R_ESTRONE_up>  (10) 
0.0

>  <CEETOX_H295R_MTT_cell_viability_dn>  (10) 
1.0

>  <CEETOX_H295R_MTT_cell_viability_up>  (10) 
0.0

>  <CEETOX_H295R_OHPREG_dn>  (10) 
0.0

>  <CEETOX_H295R_OHPREG_up>  (10) 
1.0

>  <CEETOX_H295R_OHPROG_dn>  (10) 
0.0

>  <CEETOX_H295R_OHPROG_up>  (10) 
0.0

>  <CEETOX_H295R_PROG_dn>  (10) 
0.0

>  <CEETOX_H295R_PROG_up>  (10) 
0.0

>  <CEETOX_H295R_TESTO_dn>  (10) 
1.0

>  <CEETOX_H295R_TESTO_up>  (10) 
0.0

>  <NCCT_HEK293T_CellTiterGLO>  (10) 
1.0

>  <NCCT_QuantiLum_inhib_2_dn>  (10) 
0.0

>  <NCCT_QuantiLum_inhib_dn>  (10) 
0.0

>  <NCCT_TPO_AUR_dn>  (10) 
1.0

>  <NHEERL_ZF_144hpf_TERATOSCORE_up>  (10) 
1.0

>  <NVS_ADME_hCYP2C19>  (10) 
1.0

>  <NVS_ADME_hCYP2C19_Activator>  (10) 
0.0

>  <NVS_ADME_hCYP3A4>  (10) 
1.0

>  <NVS_ADME_hCYP3A4_Activator>  (10) 
0.0

>  <NVS_ENZ_hHDAC6>  (10) 
0.0

>  <NVS_ENZ_hHDAC6_Activator>  (10) 
0.0

>  <NVS_ENZ_hTie2>  (10) 
0.0

>  <NVS_ENZ_hTie2_Activator>  (10) 
0.0

>  <NVS_ENZ_rCOMT>  (10) 
0.0

>  <NVS_ENZ_rCOMT_Activator>  (10) 
1.0

>  <NVS_ENZ_rMAOBC>  (10) 
1.0

>  <NVS_ENZ_rMAOBC_Activator>  (10) 
0.0

>  <NVS_GPCR_bH1>  (10) 
0.0

>  <NVS_GPCR_gOpiateK>  (10) 
0.0

>  <NVS_GPCR_h5HT2A>  (10) 
0.0

>  <NVS_GPCR_hETB>  (10) 
0.0

>  <NVS_GPCR_hLTB4_BLT1>  (10) 
0.0

>  <NVS_GPCR_hNK2>  (10) 
0.0

>  <NVS_GPCR_hPY2>  (10) 
0.0

>  <NVS_GPCR_rTRH>  (10) 
1.0

>  <NVS_IC_rCaChN>  (10) 
0.0

>  <NVS_IC_rCaDHPRCh_L>  (10) 
0.0

>  <NVS_LGIC_bGABARa1>  (10) 
1.0

>  <NVS_NR_bPR>  (10) 
1.0

>  <NVS_NR_hPPARg>  (10) 
0.0

>  <NVS_NR_hPXR>  (10) 
0.0

>  <NVS_NR_hRARa_Agonist>  (10) 
0.0

>  <NVS_NR_hTRa_Antagonist>  (10) 
0.0

>  <NVS_NR_rMR>  (10) 
1.0

>  <OT_AR_ARSRC1_0480>  (10) 
1.0

>  <OT_AR_ARSRC1_0960>  (10) 
1.0

>  <OT_ER_ERaERa_0480>  (10) 
1.0

>  <OT_ER_ERaERa_1440>  (10) 
1.0

>  <OT_ER_ERaERb_0480>  (10) 
1.0

>  <OT_ER_ERbERb_0480>  (10) 
1.0

>  <OT_ER_ERbERb_1440>  (10) 
1.0

>  <OT_ERa_EREGFP_0480>  (10) 
1.0

>  <TOX21_AP1_BLA_Agonist_ch1>  (10) 
0.0

>  <TOX21_AP1_BLA_Agonist_ch2>  (10) 
0.0

>  <TOX21_AP1_BLA_Agonist_ratio>  (10) 
0.0

>  <TOX21_AP1_BLA_Agonist_viability>  (10) 
0.0

>  <TOX21_ARE_BLA_Agonist_ch1>  (10) 
0.0

>  <TOX21_ARE_BLA_Agonist_ch2>  (10) 
1.0

>  <TOX21_ARE_BLA_agonist_viability>  (10) 
0.0

>  <TOX21_AR_BLA_Agonist_ch1>  (10) 
0.0

>  <TOX21_AR_BLA_Agonist_ch2>  (10) 
1.0

>  <TOX21_AR_BLA_Agonist_ratio>  (10) 
1.0

>  <TOX21_AR_BLA_Antagonist_ch1>  (10) 
0.0

>  <TOX21_AR_BLA_Antagonist_ch2>  (10) 
0.0

>  <TOX21_AR_BLA_Antagonist_ratio>  (10) 
1.0

>  <TOX21_AR_BLA_Antagonist_viability>  (10) 
1.0

>  <TOX21_AR_LUC_MDAKB2_Agonist>  (10) 
1.0

>  <TOX21_AR_LUC_MDAKB2_Agonist_3uM_Nilutamide>  (10) 
1.0

>  <TOX21_AR_LUC_MDAKB2_Agonist_3uM_Nilutamide_viability>  (10) 
0.0

>  <TOX21_AR_LUC_MDAKB2_Antagonist_0.5nM_R1881>  (10) 
0.0

>  <TOX21_AR_LUC_MDAKB2_Antagonist_0.5nM_R1881_viability>  (10) 
0.0

>  <TOX21_AR_LUC_MDAKB2_Antagonist_10nM_R1881>  (10) 
0.0

>  <TOX21_AR_LUC_MDAKB2_Antagonist_10nM_R1881_viability>  (10) 
0.0

>  <TOX21_AhR_LUC_Agonist>  (10) 
0.0

>  <TOX21_Aromatase_Inhibition>  (10) 
1.0

>  <TOX21_Aromatase_Inhibition_viability>  (10) 
0.0

>  <TOX21_AutoFluor_HEK293_Cell_blue>  (10) 
0.0

>  <TOX21_AutoFluor_HEK293_Cell_green>  (10) 
0.0

>  <TOX21_AutoFluor_HEK293_Cell_red>  (10) 
0.0

>  <TOX21_AutoFluor_HEK293_Media_blue>  (10) 
0.0

>  <TOX21_AutoFluor_HEK293_Media_green>  (10) 
0.0

>  <TOX21_AutoFluor_HEK293_Media_red>  (10) 
0.0

>  <TOX21_AutoFluor_HEPG2_Cell_blue>  (10) 
0.0

>  <TOX21_AutoFluor_HEPG2_Cell_green>  (10) 
0.0

>  <TOX21_AutoFluor_HEPG2_Cell_red>  (10) 
0.0

>  <TOX21_AutoFluor_HEPG2_Media_blue>  (10) 
0.0

>  <TOX21_AutoFluor_HEPG2_Media_green>  (10) 
0.0

>  <TOX21_AutoFluor_HEPG2_Media_red>  (10) 
0.0

>  <TOX21_CAR_Agonist>  (10) 
0.0

>  <TOX21_CAR_Antagonist>  (10) 
0.0

>  <TOX21_CAR_Antagonist_viability>  (10) 
0.0

>  <TOX21_CASP3_CHO>  (10) 
0.0

>  <TOX21_CASP3_CHO_viability>  (10) 
1.0

>  <TOX21_CASP3_HEPG2>  (10) 
0.0

>  <TOX21_CASP3_HEPG2_viability>  (10) 
0.0

>  <TOX21_DT40>  (10) 
1.0

>  <TOX21_DT40_100>  (10) 
1.0

>  <TOX21_DT40_657>  (10) 
1.0

>  <TOX21_ELG1_LUC_Agonist>  (10) 
0.0

>  <TOX21_ELG1_LUC_Agonist_viability>  (10) 
0.0

>  <TOX21_ERR_Agonist>  (10) 
0.0

>  <TOX21_ERR_Antagonist>  (10) 
1.0

>  <TOX21_ERa_BLA_Agonist_ch1>  (10) 
1.0

>  <TOX21_ERa_BLA_Agonist_ch2>  (10) 
1.0

>  <TOX21_ERa_BLA_Agonist_ratio>  (10) 
1.0

>  <TOX21_ERa_BLA_Antagonist_ch1>  (10) 
0.0

>  <TOX21_ERa_BLA_Antagonist_ch2>  (10) 
0.0

>  <TOX21_ERa_BLA_Antagonist_ratio>  (10) 
0.0

>  <TOX21_ERa_BLA_Antagonist_viability>  (10) 
0.0

>  <TOX21_ERa_LUC_VM7_Agonist>  (10) 
1.0

>  <TOX21_ERa_LUC_VM7_Agonist_10nM_ICI182780>  (10) 
1.0

>  <TOX21_ERa_LUC_VM7_Agonist_10nM_ICI182780_viability>  (10) 
0.0

>  <TOX21_ERa_LUC_VM7_Antagonist_0.1nM_E2>  (10) 
0.0

>  <TOX21_ERa_LUC_VM7_Antagonist_0.1nM_E2_viability>  (10) 
0.0

>  <TOX21_ERa_LUC_VM7_Antagonist_0.5nM_E2>  (10) 
0.0

>  <TOX21_ERa_LUC_VM7_Antagonist_0.5nM_E2_viability>  (10) 
0.0

>  <TOX21_ERb_BLA_Agonist_ch1>  (10) 
0.0

>  <TOX21_ERb_BLA_Agonist_ch2>  (10) 
1.0

>  <TOX21_ERb_BLA_Agonist_ratio>  (10) 
1.0

>  <TOX21_ERb_BLA_Agonist_viability>  (10) 
1.0

>  <TOX21_ERb_BLA_Antagonist_ch1>  (10) 
0.0

>  <TOX21_ERb_BLA_Antagonist_ch2>  (10) 
0.0

>  <TOX21_ERb_BLA_Antagonist_ratio>  (10) 
0.0

>  <TOX21_ERb_BLA_Antagonist_viability>  (10) 
1.0

>  <TOX21_ESRE_BLA_ch1>  (10) 
0.0

>  <TOX21_ESRE_BLA_ch2>  (10) 
0.0

>  <TOX21_ESRE_BLA_ratio>  (10) 
0.0

>  <TOX21_ESRE_BLA_viability>  (10) 
0.0

>  <TOX21_FXR_BLA_Antagonist_ch1>  (10) 
0.0

>  <TOX21_FXR_BLA_Antagonist_ch2>  (10) 
0.0

>  <TOX21_FXR_BLA_agonist_ch1>  (10) 
0.0

>  <TOX21_FXR_BLA_agonist_ch2>  (10) 
0.0

>  <TOX21_FXR_BLA_agonist_ratio>  (10) 
0.0

>  <TOX21_FXR_BLA_agonist_viability>  (10) 
0.0

>  <TOX21_FXR_BLA_antagonist_ratio>  (10) 
1.0

>  <TOX21_FXR_BLA_antagonist_viability>  (10) 
0.0

>  <TOX21_GR_BLA_Agonist_ch1>  (10) 
0.0

>  <TOX21_GR_BLA_Agonist_ch2>  (10) 
0.0

>  <TOX21_GR_BLA_Agonist_ratio>  (10) 
0.0

>  <TOX21_GR_BLA_Antagonist_ch1>  (10) 
0.0

>  <TOX21_GR_BLA_Antagonist_ch2>  (10) 
1.0

>  <TOX21_GR_BLA_Antagonist_ratio>  (10) 
1.0

>  <TOX21_GR_BLA_Antagonist_viability>  (10) 
1.0

>  <TOX21_H2AX_HTRF_CHO_Agonist_ch1>  (10) 
0.0

>  <TOX21_H2AX_HTRF_CHO_Agonist_ch2>  (10) 
0.0

>  <TOX21_H2AX_HTRF_CHO_Agonist_ratio>  (10) 
1.0

>  <TOX21_H2AX_HTRF_CHO_viability>  (10) 
1.0

>  <TOX21_HDAC_Inhibition>  (10) 
0.0

>  <TOX21_HDAC_Inhibition_viability>  (10) 
0.0

>  <TOX21_HRE_BLA_Agonist_ch1>  (10) 
0.0

>  <TOX21_HRE_BLA_Agonist_ch2>  (10) 
0.0

>  <TOX21_HRE_BLA_Agonist_ratio>  (10) 
0.0

>  <TOX21_HRE_BLA_Agonist_viability>  (10) 
1.0

>  <TOX21_HSE_BLA_agonist_ch1>  (10) 
0.0

>  <TOX21_HSE_BLA_agonist_ch2>  (10) 
0.0

>  <TOX21_HSE_BLA_agonist_ratio>  (10) 
0.0

>  <TOX21_HSE_BLA_agonist_viability>  (10) 
0.0

>  <TOX21_LUC_Biochem>  (10) 
0.0

>  <TOX21_MMP_fitc>  (10) 
0.0

>  <TOX21_MMP_ratio_down>  (10) 
0.0

>  <TOX21_MMP_ratio_up>  (10) 
0.0

>  <TOX21_MMP_rhodamine>  (10) 
0.0

>  <TOX21_MMP_viability>  (10) 
0.0

>  <TOX21_NFkB_BLA_agonist_ch1>  (10) 
0.0

>  <TOX21_NFkB_BLA_agonist_ch2>  (10) 
0.0

>  <TOX21_NFkB_BLA_agonist_ratio>  (10) 
0.0

>  <TOX21_NFkB_BLA_agonist_viability>  (10) 
0.0

>  <TOX21_PGC_ERR_Agonist>  (10) 
0.0

>  <TOX21_PGC_ERR_Antagonist>  (10) 
1.0

>  <TOX21_PGC_ERR_viability>  (10) 
0.0

>  <TOX21_PPARd_BLA_Agonist_viability>  (10) 
0.0

>  <TOX21_PPARd_BLA_Antagonist_ch1>  (10) 
0.0

>  <TOX21_PPARd_BLA_Antagonist_ch2>  (10) 
0.0

>  <TOX21_PPARd_BLA_agonist_ch1>  (10) 
0.0

>  <TOX21_PPARd_BLA_agonist_ch2>  (10) 
0.0

>  <TOX21_PPARd_BLA_agonist_ratio>  (10) 
0.0

>  <TOX21_PPARd_BLA_antagonist_ratio>  (10) 
0.0

>  <TOX21_PPARd_BLA_antagonist_viability>  (10) 
0.0

>  <TOX21_PPARg_BLA_Agonist_ch1>  (10) 
0.0

>  <TOX21_PPARg_BLA_Agonist_ch2>  (10) 
0.0

>  <TOX21_PPARg_BLA_Agonist_ratio>  (10) 
0.0

>  <TOX21_PPARg_BLA_Antagonist_ch1>  (10) 
0.0

>  <TOX21_PPARg_BLA_Antagonist_ch2>  (10) 
0.0

>  <TOX21_PPARg_BLA_antagonist_ratio>  (10) 
0.0

>  <TOX21_PPARg_BLA_antagonist_viability>  (10) 
0.0

>  <TOX21_PR_BLA_Agonist_ch1>  (10) 
1.0

>  <TOX21_PR_BLA_Agonist_ch2>  (10) 
1.0

>  <TOX21_PR_BLA_Agonist_ratio>  (10) 
1.0

>  <TOX21_PR_BLA_Antagonist_ch1>  (10) 
0.0

>  <TOX21_PR_BLA_Antagonist_ch2>  (10) 
0.0

>  <TOX21_PR_BLA_Antagonist_ratio>  (10) 
0.0

>  <TOX21_PR_BLA_Antagonist_viability>  (10) 
0.0

>  <TOX21_PXR_Agonist>  (10) 
0.0

>  <TOX21_PXR_viability>  (10) 
0.0

>  <TOX21_RAR_LUC_Agonist>  (10) 
0.0

>  <TOX21_RAR_LUC_Agonist_viability>  (10) 
0.0

>  <TOX21_RAR_LUC_Antagonist_viability>  (10) 
0.0

>  <TOX21_RORg_LUC_CHO_Antagonist>  (10) 
1.0

>  <TOX21_RORg_LUC_CHO_Antagonist_viability>  (10) 
0.0

>  <TOX21_RT_HEK293_FLO_00hr_viability>  (10) 
0.0

>  <TOX21_RT_HEK293_FLO_08hr_viability>  (10) 
0.0

>  <TOX21_RT_HEK293_FLO_16hr_viability>  (10) 
0.0

>  <TOX21_RT_HEK293_FLO_24hr_viability>  (10) 
0.0

>  <TOX21_RT_HEK293_FLO_32hr_viability>  (10) 
0.0

>  <TOX21_RT_HEK293_FLO_40hr_viability>  (10) 
0.0

>  <TOX21_RT_HEK293_GLO_00hr_viability>  (10) 
0.0

>  <TOX21_RT_HEK293_GLO_08hr_viability>  (10) 
1.0

>  <TOX21_RT_HEK293_GLO_16hr_viability>  (10) 
1.0

>  <TOX21_RT_HEK293_GLO_24hr_viability>  (10) 
1.0

>  <TOX21_RT_HEK293_GLO_32hr_viability>  (10) 
1.0

>  <TOX21_RT_HEK293_GLO_40hr_viability>  (10) 
1.0

>  <TOX21_RT_HEPG2_FLO_00hr_ctrl_viability>  (10) 
0.0

>  <TOX21_RT_HEPG2_FLO_08hr_viability>  (10) 
0.0

>  <TOX21_RT_HEPG2_FLO_16hr_ctrl_viability>  (10) 
0.0

>  <TOX21_RT_HEPG2_FLO_24hr_viability>  (10) 
0.0

>  <TOX21_RT_HEPG2_FLO_32hr_ctrl_viability>  (10) 
0.0

>  <TOX21_RT_HEPG2_GLO_00hr_ctrl_viability>  (10) 
1.0

>  <TOX21_RT_HEPG2_GLO_08hr_ctrl_viability>  (10) 
0.0

>  <TOX21_RT_HEPG2_GLO_16hr_ctrl_viability>  (10) 
0.0

>  <TOX21_RT_HEPG2_GLO_24hr_ctrl_viability>  (10) 
0.0

>  <TOX21_RT_HEPG2_GLO_32hr_ctrl_viability>  (10) 
0.0

>  <TOX21_RT_HEPG2_GLO_40hr_viability>  (10) 
0.0

>  <TOX21_RXR_BLA_Agonist_ch1>  (10) 
0.0

>  <TOX21_RXR_BLA_Agonist_ch2>  (10) 
0.0

>  <TOX21_RXR_BLA_Agonist_ratio>  (10) 
0.0

>  <TOX21_RXR_BLA_Agonist_viability>  (10) 
0.0

>  <TOX21_SBE_BLA_Agonist_ch1>  (10) 
0.0

>  <TOX21_SBE_BLA_Agonist_ch2>  (10) 
0.0

>  <TOX21_SBE_BLA_Agonist_ratio>  (10) 
0.0

>  <TOX21_SBE_BLA_Agonist_viability>  (10) 
0.0

>  <TOX21_SBE_BLA_Antagonist_ch1>  (10) 
0.0

>  <TOX21_SBE_BLA_Antagonist_ch2>  (10) 
0.0

>  <TOX21_SBE_BLA_Antagonist_ratio>  (10) 
1.0

>  <TOX21_SBE_BLA_Antagonist_viability>  (10) 
0.0

>  <TOX21_SSH_3T3_GLI3_Agonist>  (10) 
0.0

>  <TOX21_SSH_3T3_GLI3_Agonist_viability>  (10) 
0.0

>  <TOX21_SSH_3T3_GLI3_Antagonist>  (10) 
1.0

>  <TOX21_SSH_3T3_GLI3_Antagonist_viability>  (10) 
0.0

>  <TOX21_TRA_COA_Antagonist_Followup_ch1>  (10) 
0.0

>  <TOX21_TRA_COA_Antagonist_Followup_ch2>  (10) 
0.0

>  <TOX21_TRA_COA_Antagonist_Followup_ratio>  (10) 
0.0

>  <TOX21_TRB_BLA_Antagonist_Followup_ch1>  (10) 
0.0

>  <TOX21_TRB_BLA_Antagonist_Followup_ch2>  (10) 
0.0

>  <TOX21_TRB_BLA_Antagonist_Followup_ratio>  (10) 
0.0

>  <TOX21_TRB_BLA_Antagonist_Followup_viability>  (10) 
0.0

>  <TOX21_TRB_COA_Antagonist_Followup_ch1>  (10) 
0.0

>  <TOX21_TRB_COA_Antagonist_Followup_ch2>  (10) 
0.0

>  <TOX21_TRB_COA_Antagonist_Followup_ratio>  (10) 
0.0

>  <TOX21_TRHR_HEK293_Agonist>  (10) 
0.0

>  <TOX21_TRHR_HEK293_Antagonist>  (10) 
0.0

>  <TOX21_TR_COA_Antagonist_Followup_ch1>  (10) 
0.0

>  <TOX21_TR_COA_Antagonist_Followup_ch2>  (10) 
0.0

>  <TOX21_TR_COA_Antagonist_Followup_ratio>  (10) 
0.0

>  <TOX21_TR_LUC_GH3_Agonist>  (10) 
0.0

>  <TOX21_TR_LUC_GH3_Antagonist>  (10) 
1.0

>  <TOX21_TR_LUC_GH3_Antagonist_Followup>  (10) 
0.0

>  <TOX21_TR_LUC_GH3_Antagonist_viability>  (10) 
1.0

>  <TOX21_TR_RXR_BLA_Antagonist_Followup_ch1>  (10) 
0.0

>  <TOX21_TR_RXR_BLA_Antagonist_Followup_ch2>  (10) 
0.0

>  <TOX21_TR_RXR_BLA_Antagonist_Followup_ratio>  (10) 
0.0

>  <TOX21_TR_RXR_BLA_Antagonist_Followup_viability>  (10) 
0.0

>  <TOX21_TSHR_Agonist_ch2>  (10) 
0.0

>  <TOX21_TSHR_Antagonist_ch2>  (10) 
0.0

>  <TOX21_TSHR_Antagonist_ratio>  (10) 
0.0

>  <TOX21_TSHR_HTRF_Agonist_ch1>  (10) 
0.0

>  <TOX21_TSHR_HTRF_Antagonist_ch1>  (10) 
0.0

>  <TOX21_TSHR_wt_HTRF_ch1>  (10) 
0.0

>  <TOX21_TSHR_wt_ch2>  (10) 
0.0

>  <TOX21_TSHR_wt_ratio>  (10) 
0.0

>  <TOX21_VDR_BLA_Agonist_viability>  (10) 
0.0

>  <TOX21_VDR_BLA_Antagonist_ch1>  (10) 
0.0

>  <TOX21_VDR_BLA_Antagonist_ch2>  (10) 
0.0

>  <TOX21_VDR_BLA_agonist_ch1>  (10) 
0.0

>  <TOX21_VDR_BLA_agonist_ch2>  (10) 
0.0

>  <TOX21_VDR_BLA_agonist_ratio>  (10) 
0.0

>  <TOX21_VDR_BLA_antagonist_ratio>  (10) 
0.0

>  <TOX21_VDR_BLA_antagonist_viability>  (10) 
0.0

>  <TOX21_p53_BLA_p1_ch1>  (10) 
0.0

>  <TOX21_p53_BLA_p1_ch2>  (10) 
0.0

>  <TOX21_p53_BLA_p1_ratio>  (10) 
0.0

>  <TOX21_p53_BLA_p1_viability>  (10) 
0.0

>  <TOX21_p53_BLA_p2_ch1>  (10) 
0.0

>  <TOX21_p53_BLA_p2_ch2>  (10) 
0.0

>  <TOX21_p53_BLA_p2_ratio>  (10) 
0.0

>  <TOX21_p53_BLA_p2_viability>  (10) 
0.0

>  <TOX21_p53_BLA_p3_ch1>  (10) 
0.0

>  <TOX21_p53_BLA_p3_ch2>  (10) 
0.0

>  <TOX21_p53_BLA_p3_ratio>  (10) 
0.0

>  <TOX21_p53_BLA_p4_ch1>  (10) 
0.0

>  <TOX21_p53_BLA_p4_ch2>  (10) 
0.0

>  <TOX21_p53_BLA_p4_ratio>  (10) 
0.0

>  <TOX21_p53_BLA_p4_viability>  (10) 
0.0

>  <TOX21_p53_BLA_p5_ch1>  (10) 
0.0

>  <TOX21_p53_BLA_p5_ch2>  (10) 
0.0

>  <TOX21_p53_BLA_p5_ratio>  (10) 
0.0

>  <TOX21_p53_BLA_p5_viability>  (10) 
0.0

>  <Tanguay_ZF_120hpf_AXIS_up>  (10) 
0.0

>  <Tanguay_ZF_120hpf_ActivityScore>  (10) 
0.0

>  <Tanguay_ZF_120hpf_BRAI_up>  (10) 
0.0

>  <Tanguay_ZF_120hpf_CFIN_up>  (10) 
0.0

>  <Tanguay_ZF_120hpf_CIRC_up>  (10) 
0.0

>  <Tanguay_ZF_120hpf_EYE_up>  (10) 
0.0

>  <Tanguay_ZF_120hpf_JAW_up>  (10) 
0.0

>  <Tanguay_ZF_120hpf_MORT_up>  (10) 
0.0

>  <Tanguay_ZF_120hpf_NC_up>  (10) 
0.0

>  <Tanguay_ZF_120hpf_OTIC_up>  (10) 
0.0

>  <Tanguay_ZF_120hpf_PE_up>  (10) 
0.0

>  <Tanguay_ZF_120hpf_PFIN_up>  (10) 
0.0

>  <Tanguay_ZF_120hpf_PIG_up>  (10) 
0.0

>  <Tanguay_ZF_120hpf_SNOU_up>  (10) 
0.0

>  <Tanguay_ZF_120hpf_SOMI_up>  (10) 
0.0

>  <Tanguay_ZF_120hpf_SWIM_up>  (10) 
0.0

>  <Tanguay_ZF_120hpf_TRUN_up>  (10) 
0.0

>  <Tanguay_ZF_120hpf_TR_up>  (10) 
0.0

>  <Tanguay_ZF_120hpf_YSE_up>  (10) 
0.0

>  <UPITT_HCI_U2OS_AR_TIF2_Nucleoli_Agonist>  (10) 
1.0

>  <UPITT_HCI_U2OS_AR_TIF2_Nucleoli_Antagonist>  (10) 
0.0

>  <UPITT_HCI_U2OS_AR_TIF2_Nucleoli_Cytoplasm_Ratio_Agonist>  (10) 
1.0

>  <UPITT_HCI_U2OS_AR_TIF2_Nucleoli_Cytoplasm_Ratio_Antagonist>  (10) 
0.0

>  <NVS_NR_mERa>  (10) 
1

$$$$

     RDKit          3D

 22 25  0  0  0  0  0  0  0  0999 V2000
    0.0000    0.0000    0.0000 C   0  0  0  0  0  0  0  0  0  0  0  0
    0.0000    0.0000    0.0000 C   0  0  0  0  0  0  0  0  0  0  0  0
    0.0000    0.0000    0.0000 C   0  0  0  0  0  0  0  0  0  0  0  0
    0.0000    0.0000    0.0000 C   0  0  0  0  0  0  0  0  0  0  0  0
    0.0000    0.0000    0.0000 C   0  0  0  0  0  0  0  0  0  0  0  0
    0.0000    0.0000    0.0000 O   0  0  0  0  0  0  0  0  0  0  0  0
    0.0000    0.0000    0.0000 C   0  0  0  0  0  0  0  0  0  0  0  0
    0.0000    0.0000    0.0000 C   0  0  0  0  0  0  0  0  0  0  0  0
    0.0000    0.0000    0.0000 C   0  0  0  0  0  0  0  0  0  0  0  0
    0.0000    0.0000    0.0000 C   0  0  0  0  0  0  0  0  0  0  0  0
    0.0000    0.0000    0.0000 C   0  0  0  0  0  0  0  0  0  0  0  0
    0.0000    0.0000    0.0000 C   0  0  0  0  0  0  0  0  0  0  0  0
    0.0000    0.0000    0.0000 C   0  0  0  0  0  0  0  0  0  0  0  0
    0.0000    0.0000    0.0000 C   0  0  0  0  0  0  0  0  0  0  0  0
    0.0000    0.0000    0.0000 C   0  0  0  0  0  0  0  0  0  0  0  0
    0.0000    0.0000    0.0000 C   0  0  0  0  0  0  0  0  0  0  0  0
    0.0000    0.0000    0.0000 C   0  0  0  0  0  0  0  0  0  0  0  0
    0.0000    0.0000    0.0000 C   0  0  0  0  0  0  0  0  0  0  0  0
    0.0000    0.0000    0.0000 C   0  0  0  0  0  0  0  0  0  0  0  0
    0.0000    0.0000    0.0000 C   0  0  0  0  0  0  0  0  0  0  0  0
    0.0000    0.0000    0.0000 O   0  0  0  0  0  0  0  0  0  0  0  0
    0.0000    0.0000    0.0000 C   0  0  0  0  0  0  0  0  0  0  0  0
  1  2  1  0
  2  3  1  0
  3  4  1  0
  4  5  1  0
  5  6  2  0
  5  7  1  0
  7  8  2  0
  8  9  1  0
  9 10  1  0
 10 11  1  0
 11 12  1  0
 12 13  1  0
 13 14  1  0
 14 15  1  0
 15 16  1  0
 16 17  1  0
 17 18  1  0
 18 19  1  0
 19 20  1  0
 19 21  1  0
 15 22  1  0
  8  2  1  0
 12  2  1  0
 16 11  1  0
 19 15  1  0
M  END
>  <CASRN>  (11) 
58-18-4

>  <Name>  (11) 
Methyltestosterone

>  <Active>  (11) 
3

>  <Inactive>  (11) 
0

>  <Bioactivity>  (11) 
Active

>  <Min LEL>  (11) 
10.0

>  <Max HDT>  (11) 
nan

>  <Class>  (11) 
1

>  <Code>  (11) 
C58184

>  <NVS_NR_hER>  (11) 
1.0

>  <NVS_NR_cAR>  (11) 
1.0

>  <NVS_NR_hAR>  (11) 
1.0

>  <NVS_NR_hGR>  (11) 
1.0

>  <NVS_NR_hPR>  (11) 
1.0

>  <NVS_NR_rAR>  (11) 
1.0

>  <OT_ER_ERaERb_1440>  (11) 
1.0

>  <OT_FXR_FXRSRC1_0480>  (11) 
1.0

>  <OT_PPARg_PPARgSRC1_1440>  (11) 
0.0

>  <OT_FXR_FXRSRC1_1440>  (11) 
1.0

>  <OT_NURR1_NURR1RXRa_0480>  (11) 
0.0

>  <OT_NURR1_NURR1RXRa_1440>  (11) 
0.0

>  <OT_PPARg_PPARgSRC1_0480>  (11) 
0.0

>  <OT_AR_ARELUC_AG_1440>  (11) 
1.0

>  <OT_ERa_EREGFP_0120>  (11) 
0.0

>  <BSK_3C_HLADR_down>  (11) 
0.0

>  <BSK_3C_Vis_down>  (11) 
1.0

>  <BSK_3C_uPAR_down>  (11) 
1.0

>  <ATG_CAR_TRANS_up>  (11) 
0.0

>  <ATG_E2F_CIS_dn>  (11) 
0.0

>  <ATG_EGR_CIS_up>  (11) 
0.0

>  <ATG_ERa_TRANS_dn>  (11) 
0.0

>  <ATG_ERa_TRANS_up>  (11) 
1.0

>  <ATG_FXR_TRANS_dn>  (11) 
0.0

>  <ATG_GLI_CIS_dn>  (11) 
0.0

>  <ATG_GRE_CIS_up>  (11) 
0.0

>  <ATG_LXRa_TRANS_dn>  (11) 
0.0

>  <ATG_LXRa_TRANS_up>  (11) 
0.0

>  <ATG_NRF1_CIS_up>  (11) 
0.0

>  <ATG_NURR1_TRANS_up>  (11) 
0.0

>  <ATG_Sox_CIS_dn>  (11) 
0.0

>  <ATG_Sox_CIS_up>  (11) 
0.0

>  <ATG_Sp1_CIS_up>  (11) 
0.0

>  <ATG_TGFb_CIS_up>  (11) 
0.0

>  <TOX21_ARE_BLA_agonist_ratio>  (11) 
1.0

>  <TOX21_RAR_LUC_Antagonist>  (11) 
1.0

>  <ATG_LXRb_TRANS_dn>  (11) 
0.0

>  <ATG_CAR_TRANS_dn>  (11) 
0.0

>  <ATG_BRE_CIS_dn>  (11) 
0.0

>  <ATG_E2F_CIS_up>  (11) 
0.0

>  <TOX21_TSHR_Agonist_ratio>  (11) 
0.0

>  <ACEA_ER_80hr>  (11) 
1.0

>  <TOX21_CAR_Agonist_viabillity>  (11) 
0.0

>  <TOX21_PR_BLA_Agonist_viability>  (11) 
0.0

>  <TOX21_RT_HEPG2_FLO_40hr_ctrl_viability>  (11) 
1.0

>  <TOX21_AhR_LUC_Agonist_viability>  (11) 
0.0

>  <TOX21_ERR_viability>  (11) 
0.0

>  <TOX21_p53_BLA_p3_viability>  (11) 
0.0

>  <NVS_NR_bER>  (11) 
0.0

>  <ACEA_AR_agonist_80hr>  (11) 
1.0

>  <ACEA_AR_agonist_AUC_viability>  (11) 
0.0

>  <ACEA_AR_antagonist_80hr>  (11) 
0.0

>  <ACEA_AR_antagonist_AUC_viability>  (11) 
0.0

>  <ACEA_ER_AUC_viability>  (11) 
0.0

>  <APR_HepG2_CellCycleArrest_24h_dn>  (11) 
0.0

>  <APR_HepG2_CellCycleArrest_24h_up>  (11) 
0.0

>  <APR_HepG2_CellCycleArrest_72h_dn>  (11) 
0.0

>  <APR_HepG2_CellCycleArrest_72h_up>  (11) 
0.0

>  <APR_HepG2_CellLoss_24h_dn>  (11) 
0.0

>  <APR_HepG2_CellLoss_24h_up>  (11) 
0.0

>  <APR_HepG2_CellLoss_72h_dn>  (11) 
0.0

>  <APR_HepG2_CellLoss_72h_up>  (11) 
0.0

>  <APR_HepG2_MicrotubuleCSK_24h_dn>  (11) 
0.0

>  <APR_HepG2_MicrotubuleCSK_24h_up>  (11) 
0.0

>  <APR_HepG2_MicrotubuleCSK_72h_dn>  (11) 
0.0

>  <APR_HepG2_MicrotubuleCSK_72h_up>  (11) 
0.0

>  <APR_HepG2_MitoMass_24h_dn>  (11) 
0.0

>  <APR_HepG2_MitoMass_24h_up>  (11) 
0.0

>  <APR_HepG2_MitoMass_72h_dn>  (11) 
0.0

>  <APR_HepG2_MitoMass_72h_up>  (11) 
0.0

>  <APR_HepG2_MitoMembPot_24h_dn>  (11) 
0.0

>  <APR_HepG2_MitoMembPot_24h_up>  (11) 
0.0

>  <APR_HepG2_MitoMembPot_72h_dn>  (11) 
0.0

>  <APR_HepG2_MitoMembPot_72h_up>  (11) 
0.0

>  <APR_HepG2_MitoticArrest_24h_dn>  (11) 
0.0

>  <APR_HepG2_MitoticArrest_24h_up>  (11) 
0.0

>  <APR_HepG2_MitoticArrest_72h_dn>  (11) 
0.0

>  <APR_HepG2_MitoticArrest_72h_up>  (11) 
0.0

>  <APR_HepG2_NuclearSize_24h_dn>  (11) 
0.0

>  <APR_HepG2_NuclearSize_24h_up>  (11) 
0.0

>  <APR_HepG2_NuclearSize_72h_dn>  (11) 
0.0

>  <APR_HepG2_NuclearSize_72h_up>  (11) 
0.0

>  <APR_HepG2_OxidativeStress_24h_dn>  (11) 
0.0

>  <APR_HepG2_OxidativeStress_24h_up>  (11) 
0.0

>  <APR_HepG2_OxidativeStress_72h_dn>  (11) 
0.0

>  <APR_HepG2_OxidativeStress_72h_up>  (11) 
0.0

>  <APR_HepG2_StressKinase_24h_dn>  (11) 
0.0

>  <APR_HepG2_StressKinase_24h_up>  (11) 
0.0

>  <APR_HepG2_StressKinase_72h_dn>  (11) 
0.0

>  <APR_HepG2_StressKinase_72h_up>  (11) 
0.0

>  <APR_HepG2_p53Act_24h_dn>  (11) 
0.0

>  <APR_HepG2_p53Act_24h_up>  (11) 
0.0

>  <APR_HepG2_p53Act_72h_dn>  (11) 
0.0

>  <APR_HepG2_p53Act_72h_up>  (11) 
0.0

>  <ATG_AP_1_CIS_dn>  (11) 
0.0

>  <ATG_AP_1_CIS_up>  (11) 
0.0

>  <ATG_AP_2_CIS_dn>  (11) 
0.0

>  <ATG_AP_2_CIS_up>  (11) 
0.0

>  <ATG_AR_TRANS_dn>  (11) 
0.0

>  <ATG_AR_TRANS_up>  (11) 
1.0

>  <ATG_Ahr_CIS_dn>  (11) 
0.0

>  <ATG_Ahr_CIS_up>  (11) 
0.0

>  <ATG_BRE_CIS_up>  (11) 
1.0

>  <ATG_CMV_CIS_dn>  (11) 
0.0

>  <ATG_CMV_CIS_up>  (11) 
0.0

>  <ATG_CRE_CIS_dn>  (11) 
0.0

>  <ATG_CRE_CIS_up>  (11) 
0.0

>  <ATG_C_EBP_CIS_dn>  (11) 
0.0

>  <ATG_C_EBP_CIS_up>  (11) 
0.0

>  <ATG_DR4_LXR_CIS_dn>  (11) 
1.0

>  <ATG_DR4_LXR_CIS_up>  (11) 
0.0

>  <ATG_DR5_CIS_dn>  (11) 
0.0

>  <ATG_DR5_CIS_up>  (11) 
0.0

>  <ATG_EGR_CIS_dn>  (11) 
0.0

>  <ATG_ERE_CIS_dn>  (11) 
0.0

>  <ATG_ERE_CIS_up>  (11) 
1.0

>  <ATG_ERRa_TRANS_dn>  (11) 
0.0

>  <ATG_ERRa_TRANS_up>  (11) 
0.0

>  <ATG_ERRg_TRANS_dn>  (11) 
0.0

>  <ATG_ERRg_TRANS_up>  (11) 
0.0

>  <ATG_E_Box_CIS_dn>  (11) 
0.0

>  <ATG_E_Box_CIS_up>  (11) 
0.0

>  <ATG_Ets_CIS_dn>  (11) 
0.0

>  <ATG_Ets_CIS_up>  (11) 
0.0

>  <ATG_FXR_TRANS_up>  (11) 
0.0

>  <ATG_FoxA2_CIS_dn>  (11) 
0.0

>  <ATG_FoxA2_CIS_up>  (11) 
0.0

>  <ATG_FoxO_CIS_dn>  (11) 
0.0

>  <ATG_FoxO_CIS_up>  (11) 
0.0

>  <ATG_GAL4_TRANS_dn>  (11) 
0.0

>  <ATG_GAL4_TRANS_up>  (11) 
0.0

>  <ATG_GATA_CIS_dn>  (11) 
0.0

>  <ATG_GATA_CIS_up>  (11) 
0.0

>  <ATG_GLI_CIS_up>  (11) 
0.0

>  <ATG_GRE_CIS_dn>  (11) 
0.0

>  <ATG_GR_TRANS_dn>  (11) 
0.0

>  <ATG_GR_TRANS_up>  (11) 
0.0

>  <ATG_HIF1a_CIS_dn>  (11) 
0.0

>  <ATG_HIF1a_CIS_up>  (11) 
0.0

>  <ATG_HNF4a_TRANS_dn>  (11) 
0.0

>  <ATG_HNF4a_TRANS_up>  (11) 
0.0

>  <ATG_HNF6_CIS_dn>  (11) 
0.0

>  <ATG_HNF6_CIS_up>  (11) 
0.0

>  <ATG_HSE_CIS_dn>  (11) 
0.0

>  <ATG_HSE_CIS_up>  (11) 
0.0

>  <ATG_IR1_CIS_dn>  (11) 
0.0

>  <ATG_IR1_CIS_up>  (11) 
0.0

>  <ATG_ISRE_CIS_dn>  (11) 
0.0

>  <ATG_ISRE_CIS_up>  (11) 
0.0

>  <ATG_LXRb_TRANS_up>  (11) 
0.0

>  <ATG_MRE_CIS_dn>  (11) 
0.0

>  <ATG_MRE_CIS_up>  (11) 
1.0

>  <ATG_M_06_CIS_dn>  (11) 
0.0

>  <ATG_M_06_CIS_up>  (11) 
0.0

>  <ATG_M_06_TRANS_dn>  (11) 
0.0

>  <ATG_M_06_TRANS_up>  (11) 
0.0

>  <ATG_M_19_CIS_dn>  (11) 
0.0

>  <ATG_M_19_CIS_up>  (11) 
0.0

>  <ATG_M_19_TRANS_dn>  (11) 
0.0

>  <ATG_M_19_TRANS_up>  (11) 
0.0

>  <ATG_M_32_CIS_dn>  (11) 
0.0

>  <ATG_M_32_CIS_up>  (11) 
0.0

>  <ATG_M_32_TRANS_dn>  (11) 
0.0

>  <ATG_M_32_TRANS_up>  (11) 
0.0

>  <ATG_M_61_CIS_dn>  (11) 
0.0

>  <ATG_M_61_CIS_up>  (11) 
0.0

>  <ATG_M_61_TRANS_dn>  (11) 
0.0

>  <ATG_M_61_TRANS_up>  (11) 
0.0

>  <ATG_Myb_CIS_dn>  (11) 
0.0

>  <ATG_Myb_CIS_up>  (11) 
0.0

>  <ATG_Myc_CIS_dn>  (11) 
0.0

>  <ATG_Myc_CIS_up>  (11) 
0.0

>  <ATG_NFI_CIS_dn>  (11) 
0.0

>  <ATG_NFI_CIS_up>  (11) 
0.0

>  <ATG_NF_kB_CIS_dn>  (11) 
0.0

>  <ATG_NF_kB_CIS_up>  (11) 
0.0

>  <ATG_NRF1_CIS_dn>  (11) 
0.0

>  <ATG_NRF2_ARE_CIS_dn>  (11) 
0.0

>  <ATG_NRF2_ARE_CIS_up>  (11) 
1.0

>  <ATG_NURR1_TRANS_dn>  (11) 
0.0

>  <ATG_Oct_MLP_CIS_dn>  (11) 
0.0

>  <ATG_Oct_MLP_CIS_up>  (11) 
0.0

>  <ATG_PBREM_CIS_dn>  (11) 
0.0

>  <ATG_PBREM_CIS_up>  (11) 
0.0

>  <ATG_PPARa_TRANS_dn>  (11) 
0.0

>  <ATG_PPARa_TRANS_up>  (11) 
0.0

>  <ATG_PPARd_TRANS_dn>  (11) 
0.0

>  <ATG_PPARd_TRANS_up>  (11) 
0.0

>  <ATG_PPARg_TRANS_dn>  (11) 
0.0

>  <ATG_PPARg_TRANS_up>  (11) 
0.0

>  <ATG_PPRE_CIS_dn>  (11) 
0.0

>  <ATG_PPRE_CIS_up>  (11) 
0.0

>  <ATG_PXRE_CIS_dn>  (11) 
0.0

>  <ATG_PXRE_CIS_up>  (11) 
1.0

>  <ATG_PXR_TRANS_dn>  (11) 
0.0

>  <ATG_PXR_TRANS_up>  (11) 
0.0

>  <ATG_Pax6_CIS_dn>  (11) 
0.0

>  <ATG_Pax6_CIS_up>  (11) 
0.0

>  <ATG_RARa_TRANS_dn>  (11) 
0.0

>  <ATG_RARa_TRANS_up>  (11) 
0.0

>  <ATG_RARb_TRANS_dn>  (11) 
0.0

>  <ATG_RARb_TRANS_up>  (11) 
0.0

>  <ATG_RARg_TRANS_dn>  (11) 
0.0

>  <ATG_RARg_TRANS_up>  (11) 
0.0

>  <ATG_RORE_CIS_dn>  (11) 
0.0

>  <ATG_RORE_CIS_up>  (11) 
0.0

>  <ATG_RORb_TRANS_dn>  (11) 
0.0

>  <ATG_RORb_TRANS_up>  (11) 
0.0

>  <ATG_RORg_TRANS_dn>  (11) 
0.0

>  <ATG_RORg_TRANS_up>  (11) 
0.0

>  <ATG_RXRa_TRANS_dn>  (11) 
0.0

>  <ATG_RXRa_TRANS_up>  (11) 
0.0

>  <ATG_RXRb_TRANS_dn>  (11) 
0.0

>  <ATG_RXRb_TRANS_up>  (11) 
0.0

>  <ATG_SREBP_CIS_dn>  (11) 
0.0

>  <ATG_SREBP_CIS_up>  (11) 
1.0

>  <ATG_STAT3_CIS_dn>  (11) 
0.0

>  <ATG_STAT3_CIS_up>  (11) 
0.0

>  <ATG_Sp1_CIS_dn>  (11) 
0.0

>  <ATG_TAL_CIS_dn>  (11) 
0.0

>  <ATG_TAL_CIS_up>  (11) 
0.0

>  <ATG_TA_CIS_dn>  (11) 
0.0

>  <ATG_TA_CIS_up>  (11) 
0.0

>  <ATG_TCF_b_cat_CIS_dn>  (11) 
1.0

>  <ATG_TCF_b_cat_CIS_up>  (11) 
0.0

>  <ATG_TGFb_CIS_dn>  (11) 
0.0

>  <ATG_THRa1_TRANS_dn>  (11) 
0.0

>  <ATG_THRa1_TRANS_up>  (11) 
0.0

>  <ATG_VDRE_CIS_dn>  (11) 
0.0

>  <ATG_VDRE_CIS_up>  (11) 
1.0

>  <ATG_VDR_TRANS_dn>  (11) 
0.0

>  <ATG_VDR_TRANS_up>  (11) 
0.0

>  <ATG_XTT_Cytotoxicity_up>  (11) 
0.0

>  <ATG_Xbp1_CIS_dn>  (11) 
0.0

>  <ATG_Xbp1_CIS_up>  (11) 
0.0

>  <ATG_p53_CIS_dn>  (11) 
1.0

>  <ATG_p53_CIS_up>  (11) 
0.0

>  <BSK_3C_Eselectin_down>  (11) 
0.0

>  <BSK_3C_Eselectin_up>  (11) 
0.0

>  <BSK_3C_HLADR_up>  (11) 
0.0

>  <BSK_3C_ICAM1_down>  (11) 
0.0

>  <BSK_3C_ICAM1_up>  (11) 
0.0

>  <BSK_3C_IL8_down>  (11) 
0.0

>  <BSK_3C_IL8_up>  (11) 
0.0

>  <BSK_3C_MCP1_down>  (11) 
0.0

>  <BSK_3C_MCP1_up>  (11) 
0.0

>  <BSK_3C_MIG_down>  (11) 
0.0

>  <BSK_3C_MIG_up>  (11) 
0.0

>  <BSK_3C_Proliferation_down>  (11) 
1.0

>  <BSK_3C_Proliferation_up>  (11) 
0.0

>  <BSK_3C_SRB_down>  (11) 
1.0

>  <BSK_3C_SRB_up>  (11) 
0.0

>  <BSK_3C_Thrombomodulin_down>  (11) 
0.0

>  <BSK_3C_Thrombomodulin_up>  (11) 
0.0

>  <BSK_3C_TissueFactor_down>  (11) 
0.0

>  <BSK_3C_TissueFactor_up>  (11) 
0.0

>  <BSK_3C_VCAM1_down>  (11) 
0.0

>  <BSK_3C_VCAM1_up>  (11) 
0.0

>  <BSK_3C_Vis_up>  (11) 
0.0

>  <BSK_3C_uPAR_up>  (11) 
0.0

>  <BSK_4H_Eotaxin3_down>  (11) 
0.0

>  <BSK_4H_Eotaxin3_up>  (11) 
0.0

>  <BSK_4H_MCP1_down>  (11) 
0.0

>  <BSK_4H_MCP1_up>  (11) 
0.0

>  <BSK_4H_Pselectin_down>  (11) 
0.0

>  <BSK_4H_Pselectin_up>  (11) 
0.0

>  <BSK_4H_SRB_down>  (11) 
0.0

>  <BSK_4H_SRB_up>  (11) 
0.0

>  <BSK_4H_VCAM1_down>  (11) 
0.0

>  <BSK_4H_VCAM1_up>  (11) 
0.0

>  <BSK_4H_VEGFRII_down>  (11) 
0.0

>  <BSK_4H_VEGFRII_up>  (11) 
0.0

>  <BSK_4H_uPAR_down>  (11) 
1.0

>  <BSK_4H_uPAR_up>  (11) 
0.0

>  <BSK_BE3C_HLADR_down>  (11) 
0.0

>  <BSK_BE3C_HLADR_up>  (11) 
0.0

>  <BSK_BE3C_IL1a_down>  (11) 
0.0

>  <BSK_BE3C_IL1a_up>  (11) 
0.0

>  <BSK_BE3C_IP10_down>  (11) 
0.0

>  <BSK_BE3C_IP10_up>  (11) 
0.0

>  <BSK_BE3C_MIG_down>  (11) 
0.0

>  <BSK_BE3C_MIG_up>  (11) 
0.0

>  <BSK_BE3C_MMP1_down>  (11) 
0.0

>  <BSK_BE3C_MMP1_up>  (11) 
1.0

>  <BSK_BE3C_PAI1_down>  (11) 
0.0

>  <BSK_BE3C_PAI1_up>  (11) 
0.0

>  <BSK_BE3C_SRB_down>  (11) 
0.0

>  <BSK_BE3C_SRB_up>  (11) 
0.0

>  <BSK_BE3C_TGFb1_down>  (11) 
0.0

>  <BSK_BE3C_TGFb1_up>  (11) 
0.0

>  <BSK_BE3C_tPA_down>  (11) 
0.0

>  <BSK_BE3C_tPA_up>  (11) 
0.0

>  <BSK_BE3C_uPAR_down>  (11) 
0.0

>  <BSK_BE3C_uPAR_up>  (11) 
0.0

>  <BSK_BE3C_uPA_down>  (11) 
0.0

>  <BSK_BE3C_uPA_up>  (11) 
0.0

>  <BSK_CASM3C_HLADR_down>  (11) 
0.0

>  <BSK_CASM3C_HLADR_up>  (11) 
0.0

>  <BSK_CASM3C_IL6_down>  (11) 
0.0

>  <BSK_CASM3C_IL6_up>  (11) 
0.0

>  <BSK_CASM3C_IL8_down>  (11) 
0.0

>  <BSK_CASM3C_IL8_up>  (11) 
0.0

>  <BSK_CASM3C_LDLR_down>  (11) 
0.0

>  <BSK_CASM3C_LDLR_up>  (11) 
0.0

>  <BSK_CASM3C_MCP1_down>  (11) 
0.0

>  <BSK_CASM3C_MCP1_up>  (11) 
0.0

>  <BSK_CASM3C_MCSF_down>  (11) 
0.0

>  <BSK_CASM3C_MCSF_up>  (11) 
0.0

>  <BSK_CASM3C_MIG_down>  (11) 
0.0

>  <BSK_CASM3C_MIG_up>  (11) 
0.0

>  <BSK_CASM3C_Proliferation_down>  (11) 
0.0

>  <BSK_CASM3C_Proliferation_up>  (11) 
0.0

>  <BSK_CASM3C_SAA_down>  (11) 
0.0

>  <BSK_CASM3C_SAA_up>  (11) 
0.0

>  <BSK_CASM3C_SRB_down>  (11) 
0.0

>  <BSK_CASM3C_SRB_up>  (11) 
0.0

>  <BSK_CASM3C_Thrombomodulin_down>  (11) 
0.0

>  <BSK_CASM3C_Thrombomodulin_up>  (11) 
0.0

>  <BSK_CASM3C_TissueFactor_down>  (11) 
0.0

>  <BSK_CASM3C_TissueFactor_up>  (11) 
0.0

>  <BSK_CASM3C_VCAM1_down>  (11) 
0.0

>  <BSK_CASM3C_VCAM1_up>  (11) 
0.0

>  <BSK_CASM3C_uPAR_down>  (11) 
0.0

>  <BSK_CASM3C_uPAR_up>  (11) 
0.0

>  <BSK_KF3CT_ICAM1_down>  (11) 
0.0

>  <BSK_KF3CT_ICAM1_up>  (11) 
0.0

>  <BSK_KF3CT_IL1a_down>  (11) 
0.0

>  <BSK_KF3CT_IL1a_up>  (11) 
0.0

>  <BSK_KF3CT_IP10_down>  (11) 
0.0

>  <BSK_KF3CT_IP10_up>  (11) 
0.0

>  <BSK_KF3CT_MCP1_down>  (11) 
0.0

>  <BSK_KF3CT_MCP1_up>  (11) 
0.0

>  <BSK_KF3CT_MMP9_down>  (11) 
0.0

>  <BSK_KF3CT_MMP9_up>  (11) 
0.0

>  <BSK_KF3CT_SRB_down>  (11) 
0.0

>  <BSK_KF3CT_SRB_up>  (11) 
0.0

>  <BSK_KF3CT_TGFb1_down>  (11) 
0.0

>  <BSK_KF3CT_TGFb1_up>  (11) 
0.0

>  <BSK_KF3CT_TIMP2_down>  (11) 
0.0

>  <BSK_KF3CT_TIMP2_up>  (11) 
0.0

>  <BSK_KF3CT_uPA_down>  (11) 
0.0

>  <BSK_KF3CT_uPA_up>  (11) 
0.0

>  <BSK_LPS_CD40_down>  (11) 
0.0

>  <BSK_LPS_CD40_up>  (11) 
0.0

>  <BSK_LPS_Eselectin_down>  (11) 
0.0

>  <BSK_LPS_Eselectin_up>  (11) 
0.0

>  <BSK_LPS_IL1a_down>  (11) 
0.0

>  <BSK_LPS_IL1a_up>  (11) 
0.0

>  <BSK_LPS_IL8_down>  (11) 
0.0

>  <BSK_LPS_IL8_up>  (11) 
0.0

>  <BSK_LPS_MCP1_down>  (11) 
0.0

>  <BSK_LPS_MCP1_up>  (11) 
0.0

>  <BSK_LPS_MCSF_down>  (11) 
0.0

>  <BSK_LPS_MCSF_up>  (11) 
0.0

>  <BSK_LPS_PGE2_down>  (11) 
0.0

>  <BSK_LPS_PGE2_up>  (11) 
1.0

>  <BSK_LPS_SRB_down>  (11) 
0.0

>  <BSK_LPS_SRB_up>  (11) 
0.0

>  <BSK_LPS_TNFa_down>  (11) 
0.0

>  <BSK_LPS_TNFa_up>  (11) 
0.0

>  <BSK_LPS_TissueFactor_down>  (11) 
0.0

>  <BSK_LPS_TissueFactor_up>  (11) 
0.0

>  <BSK_LPS_VCAM1_down>  (11) 
0.0

>  <BSK_LPS_VCAM1_up>  (11) 
0.0

>  <BSK_SAg_CD38_down>  (11) 
0.0

>  <BSK_SAg_CD38_up>  (11) 
0.0

>  <BSK_SAg_CD40_down>  (11) 
0.0

>  <BSK_SAg_CD40_up>  (11) 
0.0

>  <BSK_SAg_CD69_down>  (11) 
0.0

>  <BSK_SAg_CD69_up>  (11) 
0.0

>  <BSK_SAg_Eselectin_down>  (11) 
0.0

>  <BSK_SAg_Eselectin_up>  (11) 
0.0

>  <BSK_SAg_IL8_down>  (11) 
0.0

>  <BSK_SAg_IL8_up>  (11) 
0.0

>  <BSK_SAg_MCP1_down>  (11) 
0.0

>  <BSK_SAg_MCP1_up>  (11) 
0.0

>  <BSK_SAg_MIG_down>  (11) 
0.0

>  <BSK_SAg_MIG_up>  (11) 
0.0

>  <BSK_SAg_PBMCCytotoxicity_down>  (11) 
0.0

>  <BSK_SAg_PBMCCytotoxicity_up>  (11) 
0.0

>  <BSK_SAg_Proliferation_down>  (11) 
0.0

>  <BSK_SAg_Proliferation_up>  (11) 
0.0

>  <BSK_SAg_SRB_down>  (11) 
0.0

>  <BSK_SAg_SRB_up>  (11) 
0.0

>  <BSK_hDFCGF_CollagenIII_down>  (11) 
0.0

>  <BSK_hDFCGF_CollagenIII_up>  (11) 
0.0

>  <BSK_hDFCGF_EGFR_down>  (11) 
0.0

>  <BSK_hDFCGF_EGFR_up>  (11) 
0.0

>  <BSK_hDFCGF_IL8_down>  (11) 
0.0

>  <BSK_hDFCGF_IL8_up>  (11) 
0.0

>  <BSK_hDFCGF_IP10_down>  (11) 
0.0

>  <BSK_hDFCGF_IP10_up>  (11) 
0.0

>  <BSK_hDFCGF_MCSF_down>  (11) 
0.0

>  <BSK_hDFCGF_MCSF_up>  (11) 
0.0

>  <BSK_hDFCGF_MIG_down>  (11) 
0.0

>  <BSK_hDFCGF_MIG_up>  (11) 
0.0

>  <BSK_hDFCGF_MMP1_down>  (11) 
0.0

>  <BSK_hDFCGF_MMP1_up>  (11) 
0.0

>  <BSK_hDFCGF_PAI1_down>  (11) 
0.0

>  <BSK_hDFCGF_PAI1_up>  (11) 
0.0

>  <BSK_hDFCGF_Proliferation_down>  (11) 
1.0

>  <BSK_hDFCGF_Proliferation_up>  (11) 
0.0

>  <BSK_hDFCGF_SRB_down>  (11) 
0.0

>  <BSK_hDFCGF_SRB_up>  (11) 
0.0

>  <BSK_hDFCGF_TIMP1_down>  (11) 
0.0

>  <BSK_hDFCGF_TIMP1_up>  (11) 
0.0

>  <BSK_hDFCGF_VCAM1_down>  (11) 
0.0

>  <BSK_hDFCGF_VCAM1_up>  (11) 
0.0

>  <CEETOX_H295R_11DCORT_dn>  (11) 
1.0

>  <CEETOX_H295R_11DCORT_up>  (11) 
0.0

>  <CEETOX_H295R_ANDR_dn>  (11) 
0.0

>  <CEETOX_H295R_ANDR_up>  (11) 
0.0

>  <CEETOX_H295R_CORTIC_dn>  (11) 
0.0

>  <CEETOX_H295R_CORTIC_up>  (11) 
0.0

>  <CEETOX_H295R_CORTISOL_dn>  (11) 
1.0

>  <CEETOX_H295R_CORTISOL_up>  (11) 
0.0

>  <CEETOX_H295R_DOC_dn>  (11) 
0.0

>  <CEETOX_H295R_DOC_up>  (11) 
0.0

>  <CEETOX_H295R_ESTRADIOL_dn>  (11) 
1.0

>  <CEETOX_H295R_ESTRADIOL_up>  (11) 
0.0

>  <CEETOX_H295R_ESTRONE_dn>  (11) 
1.0

>  <CEETOX_H295R_ESTRONE_up>  (11) 
0.0

>  <CEETOX_H295R_MTT_cell_viability_dn>  (11) 
0.0

>  <CEETOX_H295R_MTT_cell_viability_up>  (11) 
0.0

>  <CEETOX_H295R_OHPREG_dn>  (11) 
0.0

>  <CEETOX_H295R_OHPREG_up>  (11) 
1.0

>  <CEETOX_H295R_OHPROG_dn>  (11) 
0.0

>  <CEETOX_H295R_OHPROG_up>  (11) 
1.0

>  <CEETOX_H295R_PROG_dn>  (11) 
0.0

>  <CEETOX_H295R_PROG_up>  (11) 
0.0

>  <CEETOX_H295R_TESTO_dn>  (11) 
0.0

>  <CEETOX_H295R_TESTO_up>  (11) 
0.0

>  <NHEERL_ZF_144hpf_TERATOSCORE_up>  (11) 
1.0

>  <NVS_ADME_hCYP2C19>  (11) 
1.0

>  <NVS_ADME_hCYP2C19_Activator>  (11) 
0.0

>  <NVS_ADME_rCYP2A2>  (11) 
1.0

>  <NVS_ADME_rCYP2A2_Activator>  (11) 
0.0

>  <NVS_ADME_rCYP2C11>  (11) 
1.0

>  <NVS_ADME_rCYP2C11_Activator>  (11) 
0.0

>  <NVS_ENZ_hPTPN13>  (11) 
0.0

>  <NVS_ENZ_hPTPN13_Activator>  (11) 
0.0

>  <NVS_GPCR_gH2>  (11) 
0.0

>  <NVS_GPCR_hOpiate_D1>  (11) 
0.0

>  <NVS_GPCR_hOpiate_mu>  (11) 
0.0

>  <NVS_GPCR_rTRH>  (11) 
0.0

>  <NVS_IC_rNaCh_site2>  (11) 
1.0

>  <NVS_NR_bPR>  (11) 
1.0

>  <NVS_NR_hFXR_Agonist>  (11) 
0.0

>  <NVS_NR_hPXR>  (11) 
1.0

>  <NVS_NR_rMR>  (11) 
1.0

>  <NVS_OR_gSIGMA_NonSelective>  (11) 
1.0

>  <NVS_TR_hDAT>  (11) 
0.0

>  <OT_AR_ARSRC1_0480>  (11) 
1.0

>  <OT_AR_ARSRC1_0960>  (11) 
1.0

>  <OT_ER_ERaERa_0480>  (11) 
0.0

>  <OT_ER_ERaERa_1440>  (11) 
0.0

>  <OT_ER_ERaERb_0480>  (11) 
1.0

>  <OT_ER_ERbERb_0480>  (11) 
1.0

>  <OT_ER_ERbERb_1440>  (11) 
1.0

>  <OT_ERa_EREGFP_0480>  (11) 
0.0

>  <TOX21_AP1_BLA_Agonist_ch1>  (11) 
0.0

>  <TOX21_AP1_BLA_Agonist_ch2>  (11) 
0.0

>  <TOX21_AP1_BLA_Agonist_ratio>  (11) 
0.0

>  <TOX21_AP1_BLA_Agonist_viability>  (11) 
0.0

>  <TOX21_ARE_BLA_Agonist_ch1>  (11) 
0.0

>  <TOX21_ARE_BLA_Agonist_ch2>  (11) 
1.0

>  <TOX21_ARE_BLA_agonist_viability>  (11) 
0.0

>  <TOX21_AR_BLA_Agonist_ch1>  (11) 
0.0

>  <TOX21_AR_BLA_Agonist_ch2>  (11) 
1.0

>  <TOX21_AR_BLA_Agonist_ratio>  (11) 
1.0

>  <TOX21_AR_BLA_Antagonist_ch1>  (11) 
0.0

>  <TOX21_AR_BLA_Antagonist_ch2>  (11) 
0.0

>  <TOX21_AR_BLA_Antagonist_ratio>  (11) 
0.0

>  <TOX21_AR_BLA_Antagonist_viability>  (11) 
0.0

>  <TOX21_AR_LUC_MDAKB2_Agonist>  (11) 
1.0

>  <TOX21_AR_LUC_MDAKB2_Agonist_3uM_Nilutamide>  (11) 
1.0

>  <TOX21_AR_LUC_MDAKB2_Agonist_3uM_Nilutamide_viability>  (11) 
0.0

>  <TOX21_AR_LUC_MDAKB2_Antagonist_0.5nM_R1881>  (11) 
0.0

>  <TOX21_AR_LUC_MDAKB2_Antagonist_0.5nM_R1881_viability>  (11) 
0.0

>  <TOX21_AR_LUC_MDAKB2_Antagonist_10nM_R1881>  (11) 
0.0

>  <TOX21_AR_LUC_MDAKB2_Antagonist_10nM_R1881_viability>  (11) 
0.0

>  <TOX21_AhR_LUC_Agonist>  (11) 
0.0

>  <TOX21_Aromatase_Inhibition>  (11) 
0.0

>  <TOX21_Aromatase_Inhibition_viability>  (11) 
0.0

>  <TOX21_AutoFluor_HEK293_Cell_blue>  (11) 
0.0

>  <TOX21_AutoFluor_HEK293_Cell_green>  (11) 
0.0

>  <TOX21_AutoFluor_HEK293_Cell_red>  (11) 
0.0

>  <TOX21_AutoFluor_HEK293_Media_blue>  (11) 
0.0

>  <TOX21_AutoFluor_HEK293_Media_green>  (11) 
0.0

>  <TOX21_AutoFluor_HEK293_Media_red>  (11) 
0.0

>  <TOX21_AutoFluor_HEPG2_Cell_blue>  (11) 
0.0

>  <TOX21_AutoFluor_HEPG2_Cell_green>  (11) 
0.0

>  <TOX21_AutoFluor_HEPG2_Cell_red>  (11) 
0.0

>  <TOX21_AutoFluor_HEPG2_Media_blue>  (11) 
0.0

>  <TOX21_AutoFluor_HEPG2_Media_green>  (11) 
0.0

>  <TOX21_AutoFluor_HEPG2_Media_red>  (11) 
0.0

>  <TOX21_CAR_Agonist>  (11) 
0.0

>  <TOX21_CAR_Antagonist>  (11) 
0.0

>  <TOX21_CAR_Antagonist_viability>  (11) 
0.0

>  <TOX21_CASP3_CHO>  (11) 
0.0

>  <TOX21_CASP3_CHO_viability>  (11) 
1.0

>  <TOX21_CASP3_HEPG2>  (11) 
0.0

>  <TOX21_CASP3_HEPG2_viability>  (11) 
0.0

>  <TOX21_DT40>  (11) 
1.0

>  <TOX21_DT40_100>  (11) 
1.0

>  <TOX21_DT40_657>  (11) 
1.0

>  <TOX21_ELG1_LUC_Agonist>  (11) 
0.0

>  <TOX21_ELG1_LUC_Agonist_viability>  (11) 
0.0

>  <TOX21_ERR_Agonist>  (11) 
0.0

>  <TOX21_ERR_Antagonist>  (11) 
1.0

>  <TOX21_ERa_BLA_Agonist_ch1>  (11) 
0.0

>  <TOX21_ERa_BLA_Agonist_ch2>  (11) 
1.0

>  <TOX21_ERa_BLA_Agonist_ratio>  (11) 
1.0

>  <TOX21_ERa_BLA_Antagonist_ch1>  (11) 
0.0

>  <TOX21_ERa_BLA_Antagonist_ch2>  (11) 
0.0

>  <TOX21_ERa_BLA_Antagonist_ratio>  (11) 
0.0

>  <TOX21_ERa_BLA_Antagonist_viability>  (11) 
0.0

>  <TOX21_ERa_LUC_VM7_Agonist>  (11) 
1.0

>  <TOX21_ERa_LUC_VM7_Agonist_10nM_ICI182780>  (11) 
1.0

>  <TOX21_ERa_LUC_VM7_Agonist_10nM_ICI182780_viability>  (11) 
0.0

>  <TOX21_ERa_LUC_VM7_Antagonist_0.1nM_E2>  (11) 
1.0

>  <TOX21_ERa_LUC_VM7_Antagonist_0.1nM_E2_viability>  (11) 
0.0

>  <TOX21_ERa_LUC_VM7_Antagonist_0.5nM_E2>  (11) 
0.0

>  <TOX21_ERa_LUC_VM7_Antagonist_0.5nM_E2_viability>  (11) 
0.0

>  <TOX21_ERb_BLA_Agonist_ch1>  (11) 
0.0

>  <TOX21_ERb_BLA_Agonist_ch2>  (11) 
1.0

>  <TOX21_ERb_BLA_Agonist_ratio>  (11) 
1.0

>  <TOX21_ERb_BLA_Agonist_viability>  (11) 
0.0

>  <TOX21_ERb_BLA_Antagonist_ch1>  (11) 
0.0

>  <TOX21_ERb_BLA_Antagonist_ch2>  (11) 
0.0

>  <TOX21_ERb_BLA_Antagonist_ratio>  (11) 
0.0

>  <TOX21_ERb_BLA_Antagonist_viability>  (11) 
0.0

>  <TOX21_ESRE_BLA_ch1>  (11) 
0.0

>  <TOX21_ESRE_BLA_ch2>  (11) 
0.0

>  <TOX21_ESRE_BLA_ratio>  (11) 
0.0

>  <TOX21_ESRE_BLA_viability>  (11) 
0.0

>  <TOX21_FXR_BLA_Antagonist_ch1>  (11) 
0.0

>  <TOX21_FXR_BLA_Antagonist_ch2>  (11) 
0.0

>  <TOX21_FXR_BLA_agonist_ch1>  (11) 
0.0

>  <TOX21_FXR_BLA_agonist_ch2>  (11) 
0.0

>  <TOX21_FXR_BLA_agonist_ratio>  (11) 
0.0

>  <TOX21_FXR_BLA_agonist_viability>  (11) 
0.0

>  <TOX21_FXR_BLA_antagonist_ratio>  (11) 
1.0

>  <TOX21_FXR_BLA_antagonist_viability>  (11) 
0.0

>  <TOX21_GR_BLA_Agonist_ch1>  (11) 
0.0

>  <TOX21_GR_BLA_Agonist_ch2>  (11) 
0.0

>  <TOX21_GR_BLA_Agonist_ratio>  (11) 
0.0

>  <TOX21_GR_BLA_Antagonist_ch1>  (11) 
0.0

>  <TOX21_GR_BLA_Antagonist_ch2>  (11) 
1.0

>  <TOX21_GR_BLA_Antagonist_ratio>  (11) 
1.0

>  <TOX21_GR_BLA_Antagonist_viability>  (11) 
1.0

>  <TOX21_H2AX_HTRF_CHO_Agonist_ch1>  (11) 
0.0

>  <TOX21_H2AX_HTRF_CHO_Agonist_ch2>  (11) 
0.0

>  <TOX21_H2AX_HTRF_CHO_Agonist_ratio>  (11) 
1.0

>  <TOX21_H2AX_HTRF_CHO_viability>  (11) 
1.0

>  <TOX21_HDAC_Inhibition>  (11) 
0.0

>  <TOX21_HDAC_Inhibition_viability>  (11) 
0.0

>  <TOX21_HRE_BLA_Agonist_ch1>  (11) 
0.0

>  <TOX21_HRE_BLA_Agonist_ch2>  (11) 
0.0

>  <TOX21_HRE_BLA_Agonist_ratio>  (11) 
0.0

>  <TOX21_HRE_BLA_Agonist_viability>  (11) 
0.0

>  <TOX21_HSE_BLA_agonist_ch1>  (11) 
0.0

>  <TOX21_HSE_BLA_agonist_ch2>  (11) 
0.0

>  <TOX21_HSE_BLA_agonist_ratio>  (11) 
0.0

>  <TOX21_HSE_BLA_agonist_viability>  (11) 
0.0

>  <TOX21_LUC_Biochem>  (11) 
0.0

>  <TOX21_MMP_fitc>  (11) 
1.0

>  <TOX21_MMP_ratio_down>  (11) 
0.0

>  <TOX21_MMP_ratio_up>  (11) 
0.0

>  <TOX21_MMP_rhodamine>  (11) 
0.0

>  <TOX21_MMP_viability>  (11) 
0.0

>  <TOX21_NFkB_BLA_agonist_ch1>  (11) 
0.0

>  <TOX21_NFkB_BLA_agonist_ch2>  (11) 
0.0

>  <TOX21_NFkB_BLA_agonist_ratio>  (11) 
0.0

>  <TOX21_NFkB_BLA_agonist_viability>  (11) 
0.0

>  <TOX21_PGC_ERR_Agonist>  (11) 
0.0

>  <TOX21_PGC_ERR_Antagonist>  (11) 
1.0

>  <TOX21_PGC_ERR_viability>  (11) 
0.0

>  <TOX21_PPARd_BLA_Agonist_viability>  (11) 
0.0

>  <TOX21_PPARd_BLA_Antagonist_ch1>  (11) 
0.0

>  <TOX21_PPARd_BLA_Antagonist_ch2>  (11) 
0.0

>  <TOX21_PPARd_BLA_agonist_ch1>  (11) 
0.0

>  <TOX21_PPARd_BLA_agonist_ch2>  (11) 
0.0

>  <TOX21_PPARd_BLA_agonist_ratio>  (11) 
0.0

>  <TOX21_PPARd_BLA_antagonist_ratio>  (11) 
0.0

>  <TOX21_PPARd_BLA_antagonist_viability>  (11) 
0.0

>  <TOX21_PPARg_BLA_Agonist_ch1>  (11) 
0.0

>  <TOX21_PPARg_BLA_Agonist_ch2>  (11) 
0.0

>  <TOX21_PPARg_BLA_Agonist_ratio>  (11) 
0.0

>  <TOX21_PPARg_BLA_Antagonist_ch1>  (11) 
0.0

>  <TOX21_PPARg_BLA_Antagonist_ch2>  (11) 
0.0

>  <TOX21_PPARg_BLA_antagonist_ratio>  (11) 
0.0

>  <TOX21_PPARg_BLA_antagonist_viability>  (11) 
0.0

>  <TOX21_PR_BLA_Agonist_ch1>  (11) 
1.0

>  <TOX21_PR_BLA_Agonist_ch2>  (11) 
1.0

>  <TOX21_PR_BLA_Agonist_ratio>  (11) 
1.0

>  <TOX21_PR_BLA_Antagonist_ch1>  (11) 
0.0

>  <TOX21_PR_BLA_Antagonist_ch2>  (11) 
1.0

>  <TOX21_PR_BLA_Antagonist_ratio>  (11) 
1.0

>  <TOX21_PR_BLA_Antagonist_viability>  (11) 
0.0

>  <TOX21_PR_BLA_Followup_Agonist_ch1>  (11) 
0.0

>  <TOX21_PR_BLA_Followup_Agonist_ch2>  (11) 
1.0

>  <TOX21_PR_BLA_Followup_Agonist_ratio>  (11) 
1.0

>  <TOX21_PR_BLA_Followup_Agonist_viability>  (11) 
0.0

>  <TOX21_PR_BLA_Followup_Antagonist_ch1>  (11) 
0.0

>  <TOX21_PR_BLA_Followup_Antagonist_ch2>  (11) 
0.0

>  <TOX21_PR_BLA_Followup_Antagonist_ratio>  (11) 
1.0

>  <TOX21_PR_BLA_Followup_Antagonist_viability>  (11) 
0.0

>  <TOX21_PR_LUC_Followup_Agonist>  (11) 
1.0

>  <TOX21_PR_LUC_Followup_Agonist_viability>  (11) 
0.0

>  <TOX21_PR_LUC_Followup_Antagonist>  (11) 
0.0

>  <TOX21_PR_LUC_Followup_Antagonist_viability>  (11) 
0.0

>  <TOX21_PXR_Agonist>  (11) 
0.0

>  <TOX21_PXR_viability>  (11) 
0.0

>  <TOX21_RAR_LUC_Agonist>  (11) 
0.0

>  <TOX21_RAR_LUC_Agonist_viability>  (11) 
0.0

>  <TOX21_RAR_LUC_Antagonist_viability>  (11) 
0.0

>  <TOX21_RORg_LUC_CHO_Antagonist>  (11) 
1.0

>  <TOX21_RORg_LUC_CHO_Antagonist_viability>  (11) 
0.0

>  <TOX21_RT_HEK293_FLO_00hr_viability>  (11) 
0.0

>  <TOX21_RT_HEK293_FLO_08hr_viability>  (11) 
1.0

>  <TOX21_RT_HEK293_FLO_16hr_viability>  (11) 
0.0

>  <TOX21_RT_HEK293_FLO_24hr_viability>  (11) 
0.0

>  <TOX21_RT_HEK293_FLO_32hr_viability>  (11) 
0.0

>  <TOX21_RT_HEK293_FLO_40hr_viability>  (11) 
0.0

>  <TOX21_RT_HEK293_GLO_00hr_viability>  (11) 
0.0

>  <TOX21_RT_HEK293_GLO_08hr_viability>  (11) 
1.0

>  <TOX21_RT_HEK293_GLO_16hr_viability>  (11) 
1.0

>  <TOX21_RT_HEK293_GLO_24hr_viability>  (11) 
1.0

>  <TOX21_RT_HEK293_GLO_32hr_viability>  (11) 
1.0

>  <TOX21_RT_HEK293_GLO_40hr_viability>  (11) 
1.0

>  <TOX21_RT_HEPG2_FLO_00hr_ctrl_viability>  (11) 
0.0

>  <TOX21_RT_HEPG2_FLO_08hr_viability>  (11) 
0.0

>  <TOX21_RT_HEPG2_FLO_16hr_ctrl_viability>  (11) 
0.0

>  <TOX21_RT_HEPG2_FLO_24hr_viability>  (11) 
0.0

>  <TOX21_RT_HEPG2_FLO_32hr_ctrl_viability>  (11) 
1.0

>  <TOX21_RT_HEPG2_GLO_00hr_ctrl_viability>  (11) 
1.0

>  <TOX21_RT_HEPG2_GLO_08hr_ctrl_viability>  (11) 
0.0

>  <TOX21_RT_HEPG2_GLO_16hr_ctrl_viability>  (11) 
0.0

>  <TOX21_RT_HEPG2_GLO_24hr_ctrl_viability>  (11) 
0.0

>  <TOX21_RT_HEPG2_GLO_32hr_ctrl_viability>  (11) 
0.0

>  <TOX21_RT_HEPG2_GLO_40hr_viability>  (11) 
0.0

>  <TOX21_RXR_BLA_Agonist_ch1>  (11) 
0.0

>  <TOX21_RXR_BLA_Agonist_ch2>  (11) 
0.0

>  <TOX21_RXR_BLA_Agonist_ratio>  (11) 
0.0

>  <TOX21_RXR_BLA_Agonist_viability>  (11) 
0.0

>  <TOX21_SBE_BLA_Agonist_ch1>  (11) 
0.0

>  <TOX21_SBE_BLA_Agonist_ch2>  (11) 
0.0

>  <TOX21_SBE_BLA_Agonist_ratio>  (11) 
0.0

>  <TOX21_SBE_BLA_Agonist_viability>  (11) 
0.0

>  <TOX21_SBE_BLA_Antagonist_ch1>  (11) 
0.0

>  <TOX21_SBE_BLA_Antagonist_ch2>  (11) 
0.0

>  <TOX21_SBE_BLA_Antagonist_ratio>  (11) 
0.0

>  <TOX21_SBE_BLA_Antagonist_viability>  (11) 
0.0

>  <TOX21_SSH_3T3_GLI3_Agonist>  (11) 
0.0

>  <TOX21_SSH_3T3_GLI3_Agonist_viability>  (11) 
0.0

>  <TOX21_SSH_3T3_GLI3_Antagonist>  (11) 
1.0

>  <TOX21_SSH_3T3_GLI3_Antagonist_viability>  (11) 
0.0

>  <TOX21_TRA_COA_Antagonist_Followup_ch1>  (11) 
0.0

>  <TOX21_TRA_COA_Antagonist_Followup_ch2>  (11) 
0.0

>  <TOX21_TRA_COA_Antagonist_Followup_ratio>  (11) 
0.0

>  <TOX21_TRB_BLA_Antagonist_Followup_ch1>  (11) 
0.0

>  <TOX21_TRB_BLA_Antagonist_Followup_ch2>  (11) 
0.0

>  <TOX21_TRB_BLA_Antagonist_Followup_ratio>  (11) 
0.0

>  <TOX21_TRB_BLA_Antagonist_Followup_viability>  (11) 
0.0

>  <TOX21_TRB_COA_Antagonist_Followup_ch1>  (11) 
0.0

>  <TOX21_TRB_COA_Antagonist_Followup_ch2>  (11) 
0.0

>  <TOX21_TRB_COA_Antagonist_Followup_ratio>  (11) 
0.0

>  <TOX21_TRHR_HEK293_Agonist>  (11) 
0.0

>  <TOX21_TRHR_HEK293_Antagonist>  (11) 
0.0

>  <TOX21_TR_COA_Antagonist_Followup_ch1>  (11) 
0.0

>  <TOX21_TR_COA_Antagonist_Followup_ch2>  (11) 
0.0

>  <TOX21_TR_COA_Antagonist_Followup_ratio>  (11) 
0.0

>  <TOX21_TR_LUC_GH3_Agonist>  (11) 
0.0

>  <TOX21_TR_LUC_GH3_Antagonist>  (11) 
1.0

>  <TOX21_TR_LUC_GH3_Antagonist_Followup>  (11) 
0.0

>  <TOX21_TR_LUC_GH3_Antagonist_viability>  (11) 
0.0

>  <TOX21_TR_RXR_BLA_Antagonist_Followup_ch1>  (11) 
0.0

>  <TOX21_TR_RXR_BLA_Antagonist_Followup_ch2>  (11) 
0.0

>  <TOX21_TR_RXR_BLA_Antagonist_Followup_ratio>  (11) 
0.0

>  <TOX21_TR_RXR_BLA_Antagonist_Followup_viability>  (11) 
0.0

>  <TOX21_TSHR_Agonist_ch2>  (11) 
0.0

>  <TOX21_TSHR_Antagonist_ch2>  (11) 
0.0

>  <TOX21_TSHR_Antagonist_ratio>  (11) 
0.0

>  <TOX21_TSHR_HTRF_Agonist_ch1>  (11) 
0.0

>  <TOX21_TSHR_HTRF_Antagonist_ch1>  (11) 
0.0

>  <TOX21_TSHR_wt_HTRF_ch1>  (11) 
0.0

>  <TOX21_TSHR_wt_ch2>  (11) 
0.0

>  <TOX21_TSHR_wt_ratio>  (11) 
0.0

>  <TOX21_VDR_BLA_Agonist_viability>  (11) 
0.0

>  <TOX21_VDR_BLA_Antagonist_ch1>  (11) 
0.0

>  <TOX21_VDR_BLA_Antagonist_ch2>  (11) 
0.0

>  <TOX21_VDR_BLA_agonist_ch1>  (11) 
0.0

>  <TOX21_VDR_BLA_agonist_ch2>  (11) 
0.0

>  <TOX21_VDR_BLA_agonist_ratio>  (11) 
0.0

>  <TOX21_VDR_BLA_antagonist_ratio>  (11) 
0.0

>  <TOX21_VDR_BLA_antagonist_viability>  (11) 
0.0

>  <TOX21_p53_BLA_p1_ch1>  (11) 
0.0

>  <TOX21_p53_BLA_p1_ch2>  (11) 
0.0

>  <TOX21_p53_BLA_p1_ratio>  (11) 
0.0

>  <TOX21_p53_BLA_p1_viability>  (11) 
0.0

>  <TOX21_p53_BLA_p2_ch1>  (11) 
0.0

>  <TOX21_p53_BLA_p2_ch2>  (11) 
1.0

>  <TOX21_p53_BLA_p2_ratio>  (11) 
0.0

>  <TOX21_p53_BLA_p2_viability>  (11) 
0.0

>  <TOX21_p53_BLA_p3_ch1>  (11) 
0.0

>  <TOX21_p53_BLA_p3_ch2>  (11) 
0.0

>  <TOX21_p53_BLA_p3_ratio>  (11) 
0.0

>  <TOX21_p53_BLA_p4_ch1>  (11) 
0.0

>  <TOX21_p53_BLA_p4_ch2>  (11) 
1.0

>  <TOX21_p53_BLA_p4_ratio>  (11) 
0.0

>  <TOX21_p53_BLA_p4_viability>  (11) 
0.0

>  <TOX21_p53_BLA_p5_ch1>  (11) 
0.0

>  <TOX21_p53_BLA_p5_ch2>  (11) 
1.0

>  <TOX21_p53_BLA_p5_ratio>  (11) 
0.0

>  <TOX21_p53_BLA_p5_viability>  (11) 
0.0

>  <Tanguay_ZF_120hpf_AXIS_up>  (11) 
0.0

>  <Tanguay_ZF_120hpf_ActivityScore>  (11) 
0.0

>  <Tanguay_ZF_120hpf_BRAI_up>  (11) 
0.0

>  <Tanguay_ZF_120hpf_CFIN_up>  (11) 
0.0

>  <Tanguay_ZF_120hpf_CIRC_up>  (11) 
0.0

>  <Tanguay_ZF_120hpf_EYE_up>  (11) 
0.0

>  <Tanguay_ZF_120hpf_JAW_up>  (11) 
0.0

>  <Tanguay_ZF_120hpf_MORT_up>  (11) 
0.0

>  <Tanguay_ZF_120hpf_NC_up>  (11) 
0.0

>  <Tanguay_ZF_120hpf_OTIC_up>  (11) 
0.0

>  <Tanguay_ZF_120hpf_PE_up>  (11) 
0.0

>  <Tanguay_ZF_120hpf_PFIN_up>  (11) 
0.0

>  <Tanguay_ZF_120hpf_PIG_up>  (11) 
0.0

>  <Tanguay_ZF_120hpf_SNOU_up>  (11) 
0.0

>  <Tanguay_ZF_120hpf_SOMI_up>  (11) 
0.0

>  <Tanguay_ZF_120hpf_SWIM_up>  (11) 
0.0

>  <Tanguay_ZF_120hpf_TRUN_up>  (11) 
0.0

>  <Tanguay_ZF_120hpf_TR_up>  (11) 
0.0

>  <Tanguay_ZF_120hpf_YSE_up>  (11) 
0.0

>  <UPITT_HCI_U2OS_AR_TIF2_Nucleoli_Agonist>  (11) 
1.0

>  <UPITT_HCI_U2OS_AR_TIF2_Nucleoli_Antagonist>  (11) 
0.0

>  <UPITT_HCI_U2OS_AR_TIF2_Nucleoli_Cytoplasm_Ratio_Agonist>  (11) 
1.0

>  <UPITT_HCI_U2OS_AR_TIF2_Nucleoli_Cytoplasm_Ratio_Antagonist>  (11) 
0.0

>  <NVS_NR_mERa>  (11) 
0.0

$$$$

     RDKit          3D

 18 19  0  0  0  0  0  0  0  0999 V2000
    0.0000    0.0000    0.0000 C   0  0  0  0  0  0  0  0  0  0  0  0
    0.0000    0.0000    0.0000 C   0  0  0  0  0  0  0  0  0  0  0  0
    0.0000    0.0000    0.0000 C   0  0  0  0  0  0  0  0  0  0  0  0
    0.0000    0.0000    0.0000 C   0  0  0  0  0  0  0  0  0  0  0  0
    0.0000    0.0000    0.0000 C   0  0  0  0  0  0  0  0  0  0  0  0
    0.0000    0.0000    0.0000 C   0  0  0  0  0  0  0  0  0  0  0  0
    0.0000    0.0000    0.0000 C   0  0  0  0  0  0  0  0  0  0  0  0
    0.0000    0.0000    0.0000 C   0  0  0  0  0  0  0  0  0  0  0  0
    0.0000    0.0000    0.0000 C   0  0  0  0  0  0  0  0  0  0  0  0
    0.0000    0.0000    0.0000 C   0  0  0  0  0  0  0  0  0  0  0  0
    0.0000    0.0000    0.0000 O   0  0  0  0  0  0  0  0  0  0  0  0
    0.0000    0.0000    0.0000 C   0  0  0  0  0  0  0  0  0  0  0  0
    0.0000    0.0000    0.0000 C   0  0  0  0  0  0  0  0  0  0  0  0
    0.0000    0.0000    0.0000 C   0  0  0  0  0  0  0  0  0  0  0  0
    0.0000    0.0000    0.0000 C   0  0  0  0  0  0  0  0  0  0  0  0
    0.0000    0.0000    0.0000 C   0  0  0  0  0  0  0  0  0  0  0  0
    0.0000    0.0000    0.0000 C   0  0  0  0  0  0  0  0  0  0  0  0
    0.0000    0.0000    0.0000 O   0  0  0  0  0  0  0  0  0  0  0  0
  1  2  1  0
  2  3  1  0
  3  4  1  0
  3  5  1  0
  5  6  2  0
  6  7  1  0
  7  8  2  0
  8  9  1  0
  9 10  2  0
  8 11  1  0
  3 12  1  0
 12 13  2  0
 13 14  1  0
 14 15  2  0
 15 16  1  0
 16 17  2  0
 15 18  1  0
 10  5  1  0
 17 12  1  0
M  END
>  <CASRN>  (12) 
77-40-7

>  <Name>  (12) 
Bisphenol B

>  <Active>  (12) 
2

>  <Inactive>  (12) 
0

>  <Bioactivity>  (12) 
Active

>  <Min LEL>  (12) 
20.0

>  <Max HDT>  (12) 
nan

>  <Class>  (12) 
1

>  <Code>  (12) 
C77407

>  <NVS_NR_hER>  (12) 
1.0

>  <NVS_NR_cAR>  (12) 
1.0

>  <NVS_NR_hAR>  (12) 
1.0

>  <NVS_NR_hGR>  (12) 
1.0

>  <NVS_NR_hPR>  (12) 
1.0

>  <NVS_NR_rAR>  (12) 
1.0

>  <OT_ER_ERaERb_1440>  (12) 
1.0

>  <OT_FXR_FXRSRC1_0480>  (12) 
0.0

>  <OT_PPARg_PPARgSRC1_1440>  (12) 
0.0

>  <OT_FXR_FXRSRC1_1440>  (12) 
1.0

>  <OT_NURR1_NURR1RXRa_0480>  (12) 
1.0

>  <OT_NURR1_NURR1RXRa_1440>  (12) 
0.0

>  <OT_PPARg_PPARgSRC1_0480>  (12) 
0.0

>  <OT_AR_ARELUC_AG_1440>  (12) 
0.0

>  <OT_ERa_EREGFP_0120>  (12) 
1.0

>  <BSK_3C_HLADR_down>  (12) 
1.0

>  <BSK_3C_Vis_down>  (12) 
1.0

>  <BSK_3C_uPAR_down>  (12) 
1.0

>  <ATG_CAR_TRANS_up>  (12) 
0.0

>  <ATG_E2F_CIS_dn>  (12) 
0.0

>  <ATG_EGR_CIS_up>  (12) 
1.0

>  <ATG_ERa_TRANS_dn>  (12) 
0.0

>  <ATG_ERa_TRANS_up>  (12) 
1.0

>  <ATG_FXR_TRANS_dn>  (12) 
0.0

>  <ATG_GLI_CIS_dn>  (12) 
0.0

>  <ATG_GRE_CIS_up>  (12) 
0.0

>  <ATG_LXRa_TRANS_dn>  (12) 
0.0

>  <ATG_LXRa_TRANS_up>  (12) 
0.0

>  <ATG_NRF1_CIS_up>  (12) 
0.0

>  <ATG_NURR1_TRANS_up>  (12) 
0.0

>  <ATG_Sox_CIS_dn>  (12) 
0.0

>  <ATG_Sox_CIS_up>  (12) 
0.0

>  <ATG_Sp1_CIS_up>  (12) 
1.0

>  <ATG_TGFb_CIS_up>  (12) 
0.0

>  <TOX21_ARE_BLA_agonist_ratio>  (12) 
1.0

>  <TOX21_RAR_LUC_Antagonist>  (12) 
1.0

>  <ATG_LXRb_TRANS_dn>  (12) 
0.0

>  <ATG_CAR_TRANS_dn>  (12) 
0.0

>  <ATG_BRE_CIS_dn>  (12) 
0.0

>  <ATG_E2F_CIS_up>  (12) 
0.0

>  <TOX21_TSHR_Agonist_ratio>  (12) 
1.0

>  <ACEA_ER_80hr>  (12) 
1.0

>  <TOX21_CAR_Agonist_viabillity>  (12) 
1.0

>  <TOX21_PR_BLA_Agonist_viability>  (12) 
0.0

>  <TOX21_RT_HEPG2_FLO_40hr_ctrl_viability>  (12) 
1.0

>  <TOX21_AhR_LUC_Agonist_viability>  (12) 
0.0

>  <TOX21_ERR_viability>  (12) 
1.0

>  <TOX21_p53_BLA_p3_viability>  (12) 
0.0

>  <NVS_NR_bER>  (12) 
1.0

>  <ACEA_AR_agonist_80hr>  (12) 
0.0

>  <ACEA_AR_agonist_AUC_viability>  (12) 
1.0

>  <ACEA_AR_antagonist_80hr>  (12) 
1.0

>  <ACEA_AR_antagonist_AUC_viability>  (12) 
1.0

>  <ACEA_ER_AUC_viability>  (12) 
1.0

>  <APR_HepG2_CellCycleArrest_24h_dn>  (12) 
0.0

>  <APR_HepG2_CellCycleArrest_24h_up>  (12) 
0.0

>  <APR_HepG2_CellCycleArrest_72h_dn>  (12) 
0.0

>  <APR_HepG2_CellCycleArrest_72h_up>  (12) 
0.0

>  <APR_HepG2_CellLoss_24h_dn>  (12) 
1.0

>  <APR_HepG2_CellLoss_24h_up>  (12) 
0.0

>  <APR_HepG2_CellLoss_72h_dn>  (12) 
1.0

>  <APR_HepG2_CellLoss_72h_up>  (12) 
0.0

>  <APR_HepG2_MicrotubuleCSK_24h_dn>  (12) 
0.0

>  <APR_HepG2_MicrotubuleCSK_24h_up>  (12) 
0.0

>  <APR_HepG2_MitoMass_24h_dn>  (12) 
0.0

>  <APR_HepG2_MitoMass_24h_up>  (12) 
1.0

>  <APR_HepG2_MitoMembPot_24h_dn>  (12) 
1.0

>  <APR_HepG2_MitoMembPot_24h_up>  (12) 
0.0

>  <APR_HepG2_MitoticArrest_24h_dn>  (12) 
0.0

>  <APR_HepG2_MitoticArrest_24h_up>  (12) 
1.0

>  <APR_HepG2_NuclearSize_24h_dn>  (12) 
0.0

>  <APR_HepG2_NuclearSize_24h_up>  (12) 
0.0

>  <APR_HepG2_NuclearSize_72h_dn>  (12) 
0.0

>  <APR_HepG2_NuclearSize_72h_up>  (12) 
0.0

>  <APR_HepG2_OxidativeStress_24h_dn>  (12) 
0.0

>  <APR_HepG2_OxidativeStress_24h_up>  (12) 
1.0

>  <APR_HepG2_OxidativeStress_72h_dn>  (12) 
0.0

>  <APR_HepG2_OxidativeStress_72h_up>  (12) 
1.0

>  <APR_HepG2_StressKinase_24h_dn>  (12) 
0.0

>  <APR_HepG2_StressKinase_24h_up>  (12) 
0.0

>  <APR_HepG2_StressKinase_72h_dn>  (12) 
0.0

>  <APR_HepG2_StressKinase_72h_up>  (12) 
1.0

>  <APR_HepG2_p53Act_24h_dn>  (12) 
0.0

>  <APR_HepG2_p53Act_24h_up>  (12) 
1.0

>  <APR_HepG2_p53Act_72h_dn>  (12) 
0.0

>  <APR_HepG2_p53Act_72h_up>  (12) 
0.0

>  <ATG_AP_1_CIS_dn>  (12) 
0.0

>  <ATG_AP_1_CIS_up>  (12) 
1.0

>  <ATG_AP_2_CIS_dn>  (12) 
1.0

>  <ATG_AP_2_CIS_up>  (12) 
0.0

>  <ATG_AR_TRANS_dn>  (12) 
0.0

>  <ATG_AR_TRANS_up>  (12) 
0.0

>  <ATG_Ahr_CIS_dn>  (12) 
0.0

>  <ATG_Ahr_CIS_up>  (12) 
0.0

>  <ATG_BRE_CIS_up>  (12) 
0.0

>  <ATG_CMV_CIS_dn>  (12) 
0.0

>  <ATG_CMV_CIS_up>  (12) 
1.0

>  <ATG_CRE_CIS_dn>  (12) 
0.0

>  <ATG_CRE_CIS_up>  (12) 
0.0

>  <ATG_C_EBP_CIS_dn>  (12) 
0.0

>  <ATG_C_EBP_CIS_up>  (12) 
0.0

>  <ATG_DR4_LXR_CIS_dn>  (12) 
1.0

>  <ATG_DR4_LXR_CIS_up>  (12) 
0.0

>  <ATG_DR5_CIS_dn>  (12) 
0.0

>  <ATG_DR5_CIS_up>  (12) 
0.0

>  <ATG_EGR_CIS_dn>  (12) 
0.0

>  <ATG_ERE_CIS_dn>  (12) 
0.0

>  <ATG_ERE_CIS_up>  (12) 
1.0

>  <ATG_ERRa_TRANS_dn>  (12) 
0.0

>  <ATG_ERRa_TRANS_up>  (12) 
0.0

>  <ATG_ERRg_TRANS_dn>  (12) 
0.0

>  <ATG_ERRg_TRANS_up>  (12) 
0.0

>  <ATG_E_Box_CIS_dn>  (12) 
0.0

>  <ATG_E_Box_CIS_up>  (12) 
0.0

>  <ATG_Ets_CIS_dn>  (12) 
1.0

>  <ATG_Ets_CIS_up>  (12) 
0.0

>  <ATG_FXR_TRANS_up>  (12) 
0.0

>  <ATG_FoxA2_CIS_dn>  (12) 
0.0

>  <ATG_FoxA2_CIS_up>  (12) 
0.0

>  <ATG_FoxO_CIS_dn>  (12) 
0.0

>  <ATG_FoxO_CIS_up>  (12) 
0.0

>  <ATG_GAL4_TRANS_dn>  (12) 
0.0

>  <ATG_GAL4_TRANS_up>  (12) 
0.0

>  <ATG_GATA_CIS_dn>  (12) 
1.0

>  <ATG_GATA_CIS_up>  (12) 
0.0

>  <ATG_GLI_CIS_up>  (12) 
0.0

>  <ATG_GRE_CIS_dn>  (12) 
0.0

>  <ATG_GR_TRANS_dn>  (12) 
0.0

>  <ATG_GR_TRANS_up>  (12) 
0.0

>  <ATG_HIF1a_CIS_dn>  (12) 
0.0

>  <ATG_HIF1a_CIS_up>  (12) 
1.0

>  <ATG_HNF4a_TRANS_dn>  (12) 
0.0

>  <ATG_HNF4a_TRANS_up>  (12) 
0.0

>  <ATG_HNF6_CIS_dn>  (12) 
0.0

>  <ATG_HNF6_CIS_up>  (12) 
0.0

>  <ATG_HSE_CIS_dn>  (12) 
0.0

>  <ATG_HSE_CIS_up>  (12) 
0.0

>  <ATG_IR1_CIS_dn>  (12) 
1.0

>  <ATG_IR1_CIS_up>  (12) 
0.0

>  <ATG_ISRE_CIS_dn>  (12) 
1.0

>  <ATG_ISRE_CIS_up>  (12) 
0.0

>  <ATG_LXRb_TRANS_up>  (12) 
0.0

>  <ATG_MRE_CIS_dn>  (12) 
0.0

>  <ATG_MRE_CIS_up>  (12) 
1.0

>  <ATG_M_06_CIS_dn>  (12) 
0.0

>  <ATG_M_06_CIS_up>  (12) 
0.0

>  <ATG_M_06_TRANS_dn>  (12) 
0.0

>  <ATG_M_06_TRANS_up>  (12) 
0.0

>  <ATG_M_19_CIS_dn>  (12) 
0.0

>  <ATG_M_19_CIS_up>  (12) 
0.0

>  <ATG_M_19_TRANS_dn>  (12) 
0.0

>  <ATG_M_19_TRANS_up>  (12) 
0.0

>  <ATG_M_32_CIS_dn>  (12) 
0.0

>  <ATG_M_32_CIS_up>  (12) 
0.0

>  <ATG_M_32_TRANS_dn>  (12) 
0.0

>  <ATG_M_32_TRANS_up>  (12) 
0.0

>  <ATG_M_61_CIS_dn>  (12) 
0.0

>  <ATG_M_61_CIS_up>  (12) 
0.0

>  <ATG_M_61_TRANS_dn>  (12) 
0.0

>  <ATG_M_61_TRANS_up>  (12) 
0.0

>  <ATG_Myb_CIS_dn>  (12) 
0.0

>  <ATG_Myb_CIS_up>  (12) 
0.0

>  <ATG_Myc_CIS_dn>  (12) 
0.0

>  <ATG_Myc_CIS_up>  (12) 
0.0

>  <ATG_NFI_CIS_dn>  (12) 
0.0

>  <ATG_NFI_CIS_up>  (12) 
1.0

>  <ATG_NF_kB_CIS_dn>  (12) 
0.0

>  <ATG_NF_kB_CIS_up>  (12) 
0.0

>  <ATG_NRF1_CIS_dn>  (12) 
0.0

>  <ATG_NRF2_ARE_CIS_dn>  (12) 
0.0

>  <ATG_NRF2_ARE_CIS_up>  (12) 
1.0

>  <ATG_NURR1_TRANS_dn>  (12) 
0.0

>  <ATG_Oct_MLP_CIS_dn>  (12) 
0.0

>  <ATG_Oct_MLP_CIS_up>  (12) 
1.0

>  <ATG_PBREM_CIS_dn>  (12) 
0.0

>  <ATG_PBREM_CIS_up>  (12) 
0.0

>  <ATG_PPARa_TRANS_dn>  (12) 
0.0

>  <ATG_PPARa_TRANS_up>  (12) 
0.0

>  <ATG_PPARd_TRANS_dn>  (12) 
0.0

>  <ATG_PPARd_TRANS_up>  (12) 
0.0

>  <ATG_PPARg_TRANS_dn>  (12) 
0.0

>  <ATG_PPARg_TRANS_up>  (12) 
1.0

>  <ATG_PPRE_CIS_dn>  (12) 
0.0

>  <ATG_PPRE_CIS_up>  (12) 
0.0

>  <ATG_PXRE_CIS_dn>  (12) 
0.0

>  <ATG_PXRE_CIS_up>  (12) 
1.0

>  <ATG_PXR_TRANS_dn>  (12) 
0.0

>  <ATG_PXR_TRANS_up>  (12) 
1.0

>  <ATG_Pax6_CIS_dn>  (12) 
0.0

>  <ATG_Pax6_CIS_up>  (12) 
1.0

>  <ATG_RARa_TRANS_dn>  (12) 
0.0

>  <ATG_RARa_TRANS_up>  (12) 
0.0

>  <ATG_RARb_TRANS_dn>  (12) 
0.0

>  <ATG_RARb_TRANS_up>  (12) 
0.0

>  <ATG_RARg_TRANS_dn>  (12) 
0.0

>  <ATG_RARg_TRANS_up>  (12) 
0.0

>  <ATG_RORE_CIS_dn>  (12) 
0.0

>  <ATG_RORE_CIS_up>  (12) 
1.0

>  <ATG_RORb_TRANS_dn>  (12) 
0.0

>  <ATG_RORb_TRANS_up>  (12) 
0.0

>  <ATG_RORg_TRANS_dn>  (12) 
0.0

>  <ATG_RORg_TRANS_up>  (12) 
0.0

>  <ATG_RXRa_TRANS_dn>  (12) 
0.0

>  <ATG_RXRa_TRANS_up>  (12) 
0.0

>  <ATG_RXRb_TRANS_dn>  (12) 
0.0

>  <ATG_RXRb_TRANS_up>  (12) 
1.0

>  <ATG_SREBP_CIS_dn>  (12) 
0.0

>  <ATG_SREBP_CIS_up>  (12) 
1.0

>  <ATG_STAT3_CIS_dn>  (12) 
0.0

>  <ATG_STAT3_CIS_up>  (12) 
0.0

>  <ATG_Sp1_CIS_dn>  (12) 
0.0

>  <ATG_TAL_CIS_dn>  (12) 
0.0

>  <ATG_TAL_CIS_up>  (12) 
0.0

>  <ATG_TA_CIS_dn>  (12) 
0.0

>  <ATG_TA_CIS_up>  (12) 
0.0

>  <ATG_TCF_b_cat_CIS_dn>  (12) 
1.0

>  <ATG_TCF_b_cat_CIS_up>  (12) 
0.0

>  <ATG_TGFb_CIS_dn>  (12) 
0.0

>  <ATG_THRa1_TRANS_dn>  (12) 
0.0

>  <ATG_THRa1_TRANS_up>  (12) 
0.0

>  <ATG_VDRE_CIS_dn>  (12) 
0.0

>  <ATG_VDRE_CIS_up>  (12) 
1.0

>  <ATG_VDR_TRANS_dn>  (12) 
0.0

>  <ATG_VDR_TRANS_up>  (12) 
0.0

>  <ATG_XTT_Cytotoxicity_up>  (12) 
1.0

>  <ATG_Xbp1_CIS_dn>  (12) 
0.0

>  <ATG_Xbp1_CIS_up>  (12) 
1.0

>  <ATG_p53_CIS_dn>  (12) 
1.0

>  <ATG_p53_CIS_up>  (12) 
0.0

>  <BSK_3C_Eselectin_down>  (12) 
0.0

>  <BSK_3C_Eselectin_up>  (12) 
0.0

>  <BSK_3C_HLADR_up>  (12) 
0.0

>  <BSK_3C_ICAM1_down>  (12) 
0.0

>  <BSK_3C_ICAM1_up>  (12) 
0.0

>  <BSK_3C_IL8_down>  (12) 
1.0

>  <BSK_3C_IL8_up>  (12) 
0.0

>  <BSK_3C_MCP1_down>  (12) 
1.0

>  <BSK_3C_MCP1_up>  (12) 
0.0

>  <BSK_3C_MIG_down>  (12) 
0.0

>  <BSK_3C_MIG_up>  (12) 
0.0

>  <BSK_3C_Proliferation_down>  (12) 
1.0

>  <BSK_3C_Proliferation_up>  (12) 
0.0

>  <BSK_3C_SRB_down>  (12) 
1.0

>  <BSK_3C_SRB_up>  (12) 
0.0

>  <BSK_3C_Thrombomodulin_down>  (12) 
0.0

>  <BSK_3C_Thrombomodulin_up>  (12) 
0.0

>  <BSK_3C_TissueFactor_down>  (12) 
0.0

>  <BSK_3C_TissueFactor_up>  (12) 
0.0

>  <BSK_3C_VCAM1_down>  (12) 
0.0

>  <BSK_3C_VCAM1_up>  (12) 
0.0

>  <BSK_3C_Vis_up>  (12) 
0.0

>  <BSK_3C_uPAR_up>  (12) 
0.0

>  <BSK_4H_Eotaxin3_down>  (12) 
0.0

>  <BSK_4H_Eotaxin3_up>  (12) 
0.0

>  <BSK_4H_MCP1_down>  (12) 
1.0

>  <BSK_4H_MCP1_up>  (12) 
0.0

>  <BSK_4H_Pselectin_down>  (12) 
1.0

>  <BSK_4H_Pselectin_up>  (12) 
0.0

>  <BSK_4H_SRB_down>  (12) 
1.0

>  <BSK_4H_SRB_up>  (12) 
0.0

>  <BSK_4H_VCAM1_down>  (12) 
1.0

>  <BSK_4H_VCAM1_up>  (12) 
0.0

>  <BSK_4H_VEGFRII_down>  (12) 
0.0

>  <BSK_4H_VEGFRII_up>  (12) 
0.0

>  <BSK_4H_uPAR_down>  (12) 
1.0

>  <BSK_4H_uPAR_up>  (12) 
0.0

>  <BSK_BE3C_HLADR_down>  (12) 
1.0

>  <BSK_BE3C_HLADR_up>  (12) 
0.0

>  <BSK_BE3C_IL1a_down>  (12) 
0.0

>  <BSK_BE3C_IL1a_up>  (12) 
0.0

>  <BSK_BE3C_IP10_down>  (12) 
1.0

>  <BSK_BE3C_IP10_up>  (12) 
0.0

>  <BSK_BE3C_MIG_down>  (12) 
0.0

>  <BSK_BE3C_MIG_up>  (12) 
0.0

>  <BSK_BE3C_MMP1_down>  (12) 
0.0

>  <BSK_BE3C_MMP1_up>  (12) 
1.0

>  <BSK_BE3C_PAI1_down>  (12) 
0.0

>  <BSK_BE3C_PAI1_up>  (12) 
0.0

>  <BSK_BE3C_SRB_down>  (12) 
0.0

>  <BSK_BE3C_SRB_up>  (12) 
0.0

>  <BSK_BE3C_TGFb1_down>  (12) 
0.0

>  <BSK_BE3C_TGFb1_up>  (12) 
0.0

>  <BSK_BE3C_tPA_down>  (12) 
0.0

>  <BSK_BE3C_tPA_up>  (12) 
0.0

>  <BSK_BE3C_uPAR_down>  (12) 
0.0

>  <BSK_BE3C_uPAR_up>  (12) 
0.0

>  <BSK_BE3C_uPA_down>  (12) 
0.0

>  <BSK_BE3C_uPA_up>  (12) 
1.0

>  <BSK_CASM3C_HLADR_down>  (12) 
0.0

>  <BSK_CASM3C_HLADR_up>  (12) 
0.0

>  <BSK_CASM3C_IL6_down>  (12) 
0.0

>  <BSK_CASM3C_IL6_up>  (12) 
0.0

>  <BSK_CASM3C_IL8_down>  (12) 
0.0

>  <BSK_CASM3C_IL8_up>  (12) 
0.0

>  <BSK_CASM3C_LDLR_down>  (12) 
0.0

>  <BSK_CASM3C_LDLR_up>  (12) 
0.0

>  <BSK_CASM3C_MCP1_down>  (12) 
0.0

>  <BSK_CASM3C_MCP1_up>  (12) 
0.0

>  <BSK_CASM3C_MCSF_down>  (12) 
0.0

>  <BSK_CASM3C_MCSF_up>  (12) 
0.0

>  <BSK_CASM3C_MIG_down>  (12) 
0.0

>  <BSK_CASM3C_MIG_up>  (12) 
0.0

>  <BSK_CASM3C_Proliferation_down>  (12) 
1.0

>  <BSK_CASM3C_Proliferation_up>  (12) 
0.0

>  <BSK_CASM3C_SAA_down>  (12) 
0.0

>  <BSK_CASM3C_SAA_up>  (12) 
0.0

>  <BSK_CASM3C_SRB_down>  (12) 
0.0

>  <BSK_CASM3C_SRB_up>  (12) 
0.0

>  <BSK_CASM3C_Thrombomodulin_down>  (12) 
0.0

>  <BSK_CASM3C_Thrombomodulin_up>  (12) 
1.0

>  <BSK_CASM3C_TissueFactor_down>  (12) 
0.0

>  <BSK_CASM3C_TissueFactor_up>  (12) 
0.0

>  <BSK_CASM3C_VCAM1_down>  (12) 
0.0

>  <BSK_CASM3C_VCAM1_up>  (12) 
0.0

>  <BSK_CASM3C_uPAR_down>  (12) 
0.0

>  <BSK_CASM3C_uPAR_up>  (12) 
0.0

>  <BSK_KF3CT_ICAM1_down>  (12) 
0.0

>  <BSK_KF3CT_ICAM1_up>  (12) 
0.0

>  <BSK_KF3CT_IL1a_down>  (12) 
0.0

>  <BSK_KF3CT_IL1a_up>  (12) 
0.0

>  <BSK_KF3CT_IP10_down>  (12) 
1.0

>  <BSK_KF3CT_IP10_up>  (12) 
0.0

>  <BSK_KF3CT_MCP1_down>  (12) 
0.0

>  <BSK_KF3CT_MCP1_up>  (12) 
0.0

>  <BSK_KF3CT_MMP9_down>  (12) 
0.0

>  <BSK_KF3CT_MMP9_up>  (12) 
0.0

>  <BSK_KF3CT_SRB_down>  (12) 
0.0

>  <BSK_KF3CT_SRB_up>  (12) 
0.0

>  <BSK_KF3CT_TGFb1_down>  (12) 
0.0

>  <BSK_KF3CT_TGFb1_up>  (12) 
0.0

>  <BSK_KF3CT_TIMP2_down>  (12) 
0.0

>  <BSK_KF3CT_TIMP2_up>  (12) 
0.0

>  <BSK_KF3CT_uPA_down>  (12) 
0.0

>  <BSK_KF3CT_uPA_up>  (12) 
0.0

>  <BSK_LPS_CD40_down>  (12) 
1.0

>  <BSK_LPS_CD40_up>  (12) 
0.0

>  <BSK_LPS_Eselectin_down>  (12) 
0.0

>  <BSK_LPS_Eselectin_up>  (12) 
0.0

>  <BSK_LPS_IL1a_down>  (12) 
0.0

>  <BSK_LPS_IL1a_up>  (12) 
0.0

>  <BSK_LPS_IL8_down>  (12) 
0.0

>  <BSK_LPS_IL8_up>  (12) 
0.0

>  <BSK_LPS_MCP1_down>  (12) 
0.0

>  <BSK_LPS_MCP1_up>  (12) 
0.0

>  <BSK_LPS_MCSF_down>  (12) 
1.0

>  <BSK_LPS_MCSF_up>  (12) 
0.0

>  <BSK_LPS_PGE2_down>  (12) 
1.0

>  <BSK_LPS_PGE2_up>  (12) 
0.0

>  <BSK_LPS_SRB_down>  (12) 
1.0

>  <BSK_LPS_SRB_up>  (12) 
0.0

>  <BSK_LPS_TNFa_down>  (12) 
0.0

>  <BSK_LPS_TNFa_up>  (12) 
0.0

>  <BSK_LPS_TissueFactor_down>  (12) 
0.0

>  <BSK_LPS_TissueFactor_up>  (12) 
0.0

>  <BSK_LPS_VCAM1_down>  (12) 
1.0

>  <BSK_LPS_VCAM1_up>  (12) 
0.0

>  <BSK_SAg_CD38_down>  (12) 
1.0

>  <BSK_SAg_CD38_up>  (12) 
0.0

>  <BSK_SAg_CD40_down>  (12) 
1.0

>  <BSK_SAg_CD40_up>  (12) 
0.0

>  <BSK_SAg_CD69_down>  (12) 
1.0

>  <BSK_SAg_CD69_up>  (12) 
0.0

>  <BSK_SAg_Eselectin_down>  (12) 
1.0

>  <BSK_SAg_Eselectin_up>  (12) 
0.0

>  <BSK_SAg_IL8_down>  (12) 
1.0

>  <BSK_SAg_IL8_up>  (12) 
0.0

>  <BSK_SAg_MCP1_down>  (12) 
1.0

>  <BSK_SAg_MCP1_up>  (12) 
0.0

>  <BSK_SAg_MIG_down>  (12) 
0.0

>  <BSK_SAg_MIG_up>  (12) 
0.0

>  <BSK_SAg_PBMCCytotoxicity_down>  (12) 
1.0

>  <BSK_SAg_PBMCCytotoxicity_up>  (12) 
0.0

>  <BSK_SAg_Proliferation_down>  (12) 
1.0

>  <BSK_SAg_Proliferation_up>  (12) 
0.0

>  <BSK_SAg_SRB_down>  (12) 
0.0

>  <BSK_SAg_SRB_up>  (12) 
0.0

>  <BSK_hDFCGF_CollagenIII_down>  (12) 
1.0

>  <BSK_hDFCGF_CollagenIII_up>  (12) 
0.0

>  <BSK_hDFCGF_EGFR_down>  (12) 
0.0

>  <BSK_hDFCGF_EGFR_up>  (12) 
0.0

>  <BSK_hDFCGF_IL8_down>  (12) 
0.0

>  <BSK_hDFCGF_IL8_up>  (12) 
0.0

>  <BSK_hDFCGF_IP10_down>  (12) 
1.0

>  <BSK_hDFCGF_IP10_up>  (12) 
0.0

>  <BSK_hDFCGF_MCSF_down>  (12) 
0.0

>  <BSK_hDFCGF_MCSF_up>  (12) 
0.0

>  <BSK_hDFCGF_MIG_down>  (12) 
0.0

>  <BSK_hDFCGF_MIG_up>  (12) 
0.0

>  <BSK_hDFCGF_MMP1_down>  (12) 
0.0

>  <BSK_hDFCGF_MMP1_up>  (12) 
0.0

>  <BSK_hDFCGF_PAI1_down>  (12) 
0.0

>  <BSK_hDFCGF_PAI1_up>  (12) 
0.0

>  <BSK_hDFCGF_Proliferation_down>  (12) 
1.0

>  <BSK_hDFCGF_Proliferation_up>  (12) 
0.0

>  <BSK_hDFCGF_SRB_down>  (12) 
1.0

>  <BSK_hDFCGF_SRB_up>  (12) 
0.0

>  <BSK_hDFCGF_TIMP1_down>  (12) 
0.0

>  <BSK_hDFCGF_TIMP1_up>  (12) 
0.0

>  <BSK_hDFCGF_VCAM1_down>  (12) 
1.0

>  <BSK_hDFCGF_VCAM1_up>  (12) 
0.0

>  <NCCT_HEK293T_CellTiterGLO>  (12) 
1.0

>  <NCCT_QuantiLum_inhib_2_dn>  (12) 
0.0

>  <NCCT_QuantiLum_inhib_dn>  (12) 
1.0

>  <NCCT_TPO_AUR_dn>  (12) 
1.0

>  <NCCT_TPO_GUA_dn>  (12) 
1.0

>  <NHEERL_ZF_144hpf_TERATOSCORE_up>  (12) 
1.0

>  <NIS_HEK293T_CTG_Cytotoxicity>  (12) 
1.0

>  <NIS_RAIU_inhibition>  (12) 
1.0

>  <NVS_ADME_hCYP1A1>  (12) 
0.0

>  <NVS_ADME_hCYP1A1_Activator>  (12) 
0.0

>  <NVS_ADME_hCYP2A6>  (12) 
0.0

>  <NVS_ADME_hCYP2A6_Activator>  (12) 
0.0

>  <NVS_ADME_hCYP2B6>  (12) 
1.0

>  <NVS_ADME_hCYP2B6_Activator>  (12) 
0.0

>  <NVS_ADME_hCYP2C19>  (12) 
1.0

>  <NVS_ADME_hCYP2C19_Activator>  (12) 
0.0

>  <NVS_ADME_hCYP2C9>  (12) 
1.0

>  <NVS_ADME_hCYP2C9_Activator>  (12) 
0.0

>  <NVS_ADME_hCYP3A4>  (12) 
0.0

>  <NVS_ADME_hCYP3A4_Activator>  (12) 
0.0

>  <NVS_ENZ_hBACE>  (12) 
1.0

>  <NVS_ENZ_hBACE_Activator>  (12) 
0.0

>  <NVS_ENZ_hPDE5>  (12) 
0.0

>  <NVS_ENZ_hPDE5_Activator>  (12) 
0.0

>  <NVS_ENZ_hPTPN6>  (12) 
0.0

>  <NVS_ENZ_hPTPN6_Activator>  (12) 
1.0

>  <NVS_GPCR_g5HT4>  (12) 
1.0

>  <NVS_GPCR_gH2>  (12) 
1.0

>  <NVS_GPCR_gLTB4>  (12) 
1.0

>  <NVS_GPCR_gOpiateK>  (12) 
0.0

>  <NVS_GPCR_h5HT5A>  (12) 
1.0

>  <NVS_GPCR_h5HT6>  (12) 
1.0

>  <NVS_GPCR_h5HT7>  (12) 
1.0

>  <NVS_GPCR_hAdoRA1>  (12) 
1.0

>  <NVS_GPCR_hDRD1>  (12) 
1.0

>  <NVS_GPCR_hNK2>  (12) 
0.0

>  <NVS_GPCR_hOpiate_D1>  (12) 
1.0

>  <NVS_GPCR_hOpiate_mu>  (12) 
1.0

>  <NVS_GPCR_p5HT2C>  (12) 
1.0

>  <NVS_GPCR_rOpiate_NonSelective>  (12) 
1.0

>  <NVS_GPCR_rOpiate_NonSelectiveNa>  (12) 
1.0

>  <NVS_IC_rNaCh_site2>  (12) 
1.0

>  <NVS_LGIC_rGluNMDA_Agonist>  (12) 
1.0

>  <NVS_MP_hPBR>  (12) 
1.0

>  <NVS_MP_rPBR>  (12) 
0.0

>  <NVS_NR_bPR>  (12) 
1.0

>  <NVS_NR_hPPARa>  (12) 
0.0

>  <NVS_NR_hPPARg>  (12) 
0.0

>  <NVS_NR_hPXR>  (12) 
1.0

>  <NVS_NR_hRAR_Antagonist>  (12) 
0.0

>  <NVS_NR_hRARa_Agonist>  (12) 
0.0

>  <NVS_NR_rMR>  (12) 
0.0

>  <NVS_TR_gDAT>  (12) 
1.0

>  <NVS_TR_hDAT>  (12) 
1.0

>  <NVS_TR_hNET>  (12) 
1.0

>  <NVS_TR_rNET>  (12) 
0.0

>  <NVS_TR_rVMAT2>  (12) 
1.0

>  <OT_AR_ARSRC1_0480>  (12) 
1.0

>  <OT_AR_ARSRC1_0960>  (12) 
1.0

>  <OT_ER_ERaERa_0480>  (12) 
1.0

>  <OT_ER_ERaERa_1440>  (12) 
1.0

>  <OT_ER_ERaERb_0480>  (12) 
1.0

>  <OT_ER_ERbERb_0480>  (12) 
1.0

>  <OT_ER_ERbERb_1440>  (12) 
1.0

>  <OT_ERa_EREGFP_0480>  (12) 
1.0

>  <TOX21_AP1_BLA_Agonist_ch1>  (12) 
1.0

>  <TOX21_AP1_BLA_Agonist_ch2>  (12) 
0.0

>  <TOX21_AP1_BLA_Agonist_ratio>  (12) 
1.0

>  <TOX21_AP1_BLA_Agonist_viability>  (12) 
0.0

>  <TOX21_ARE_BLA_Agonist_ch1>  (12) 
0.0

>  <TOX21_ARE_BLA_Agonist_ch2>  (12) 
1.0

>  <TOX21_ARE_BLA_agonist_viability>  (12) 
0.0

>  <TOX21_AR_BLA_Agonist_ch1>  (12) 
0.0

>  <TOX21_AR_BLA_Agonist_ch2>  (12) 
0.0

>  <TOX21_AR_BLA_Agonist_ratio>  (12) 
0.0

>  <TOX21_AR_BLA_Antagonist_ch1>  (12) 
0.0

>  <TOX21_AR_BLA_Antagonist_ch2>  (12) 
1.0

>  <TOX21_AR_BLA_Antagonist_ratio>  (12) 
1.0

>  <TOX21_AR_BLA_Antagonist_viability>  (12) 
1.0

>  <TOX21_AR_LUC_MDAKB2_Agonist>  (12) 
0.0

>  <TOX21_AR_LUC_MDAKB2_Agonist_3uM_Nilutamide>  (12) 
0.0

>  <TOX21_AR_LUC_MDAKB2_Agonist_3uM_Nilutamide_viability>  (12) 
0.0

>  <TOX21_AR_LUC_MDAKB2_Antagonist_0.5nM_R1881>  (12) 
1.0

>  <TOX21_AR_LUC_MDAKB2_Antagonist_0.5nM_R1881_viability>  (12) 
0.0

>  <TOX21_AR_LUC_MDAKB2_Antagonist_10nM_R1881>  (12) 
1.0

>  <TOX21_AR_LUC_MDAKB2_Antagonist_10nM_R1881_viability>  (12) 
0.0

>  <TOX21_AhR_LUC_Agonist>  (12) 
0.0

>  <TOX21_Aromatase_Inhibition>  (12) 
1.0

>  <TOX21_Aromatase_Inhibition_viability>  (12) 
1.0

>  <TOX21_AutoFluor_HEK293_Cell_blue>  (12) 
0.0

>  <TOX21_AutoFluor_HEK293_Cell_green>  (12) 
0.0

>  <TOX21_AutoFluor_HEK293_Cell_red>  (12) 
0.0

>  <TOX21_AutoFluor_HEK293_Media_blue>  (12) 
0.0

>  <TOX21_AutoFluor_HEK293_Media_green>  (12) 
0.0

>  <TOX21_AutoFluor_HEK293_Media_red>  (12) 
0.0

>  <TOX21_AutoFluor_HEPG2_Cell_blue>  (12) 
0.0

>  <TOX21_AutoFluor_HEPG2_Cell_green>  (12) 
0.0

>  <TOX21_AutoFluor_HEPG2_Cell_red>  (12) 
0.0

>  <TOX21_AutoFluor_HEPG2_Media_blue>  (12) 
0.0

>  <TOX21_AutoFluor_HEPG2_Media_green>  (12) 
0.0

>  <TOX21_AutoFluor_HEPG2_Media_red>  (12) 
0.0

>  <TOX21_CAR_Agonist>  (12) 
1.0

>  <TOX21_CAR_Antagonist>  (12) 
1.0

>  <TOX21_CAR_Antagonist_viability>  (12) 
0.0

>  <TOX21_CASP3_CHO>  (12) 
0.0

>  <TOX21_CASP3_CHO_viability>  (12) 
1.0

>  <TOX21_CASP3_HEPG2>  (12) 
0.0

>  <TOX21_CASP3_HEPG2_viability>  (12) 
0.0

>  <TOX21_DT40>  (12) 
1.0

>  <TOX21_DT40_100>  (12) 
1.0

>  <TOX21_DT40_657>  (12) 
1.0

>  <TOX21_ELG1_LUC_Agonist>  (12) 
0.0

>  <TOX21_ELG1_LUC_Agonist_viability>  (12) 
0.0

>  <TOX21_ERR_Agonist>  (12) 
0.0

>  <TOX21_ERR_Antagonist>  (12) 
1.0

>  <TOX21_ERa_BLA_Agonist_ch1>  (12) 
0.0

>  <TOX21_ERa_BLA_Agonist_ch2>  (12) 
1.0

>  <TOX21_ERa_BLA_Agonist_ratio>  (12) 
0.0

>  <TOX21_ERa_BLA_Antagonist_ch1>  (12) 
1.0

>  <TOX21_ERa_BLA_Antagonist_ch2>  (12) 
1.0

>  <TOX21_ERa_BLA_Antagonist_ratio>  (12) 
1.0

>  <TOX21_ERa_BLA_Antagonist_viability>  (12) 
0.0

>  <TOX21_ERa_LUC_VM7_Agonist>  (12) 
1.0

>  <TOX21_ERa_LUC_VM7_Agonist_10nM_ICI182780>  (12) 
1.0

>  <TOX21_ERa_LUC_VM7_Agonist_10nM_ICI182780_viability>  (12) 
0.0

>  <TOX21_ERa_LUC_VM7_Antagonist_0.1nM_E2>  (12) 
1.0

>  <TOX21_ERa_LUC_VM7_Antagonist_0.1nM_E2_viability>  (12) 
0.0

>  <TOX21_ERa_LUC_VM7_Antagonist_0.5nM_E2>  (12) 
1.0

>  <TOX21_ERa_LUC_VM7_Antagonist_0.5nM_E2_viability>  (12) 
0.0

>  <TOX21_ERb_BLA_Agonist_ch1>  (12) 
0.0

>  <TOX21_ERb_BLA_Agonist_ch2>  (12) 
0.0

>  <TOX21_ERb_BLA_Agonist_ratio>  (12) 
0.0

>  <TOX21_ERb_BLA_Agonist_viability>  (12) 
0.0

>  <TOX21_ERb_BLA_Antagonist_ch1>  (12) 
0.0

>  <TOX21_ERb_BLA_Antagonist_ch2>  (12) 
1.0

>  <TOX21_ERb_BLA_Antagonist_ratio>  (12) 
1.0

>  <TOX21_ERb_BLA_Antagonist_viability>  (12) 
0.0

>  <TOX21_ESRE_BLA_ch1>  (12) 
0.0

>  <TOX21_ESRE_BLA_ch2>  (12) 
0.0

>  <TOX21_ESRE_BLA_ratio>  (12) 
0.0

>  <TOX21_ESRE_BLA_viability>  (12) 
0.0

>  <TOX21_FXR_BLA_Antagonist_ch1>  (12) 
1.0

>  <TOX21_FXR_BLA_Antagonist_ch2>  (12) 
0.0

>  <TOX21_FXR_BLA_agonist_ch1>  (12) 
0.0

>  <TOX21_FXR_BLA_agonist_ch2>  (12) 
0.0

>  <TOX21_FXR_BLA_agonist_ratio>  (12) 
0.0

>  <TOX21_FXR_BLA_agonist_viability>  (12) 
0.0

>  <TOX21_FXR_BLA_antagonist_ratio>  (12) 
1.0

>  <TOX21_FXR_BLA_antagonist_viability>  (12) 
0.0

>  <TOX21_GR_BLA_Agonist_ch1>  (12) 
1.0

>  <TOX21_GR_BLA_Agonist_ch2>  (12) 
0.0

>  <TOX21_GR_BLA_Agonist_ratio>  (12) 
0.0

>  <TOX21_GR_BLA_Antagonist_ch1>  (12) 
0.0

>  <TOX21_GR_BLA_Antagonist_ch2>  (12) 
1.0

>  <TOX21_GR_BLA_Antagonist_ratio>  (12) 
1.0

>  <TOX21_GR_BLA_Antagonist_viability>  (12) 
0.0

>  <TOX21_H2AX_HTRF_CHO_Agonist_ch1>  (12) 
0.0

>  <TOX21_H2AX_HTRF_CHO_Agonist_ch2>  (12) 
0.0

>  <TOX21_H2AX_HTRF_CHO_Agonist_ratio>  (12) 
0.0

>  <TOX21_H2AX_HTRF_CHO_viability>  (12) 
0.0

>  <TOX21_HDAC_Inhibition>  (12) 
0.0

>  <TOX21_HDAC_Inhibition_viability>  (12) 
0.0

>  <TOX21_HRE_BLA_Agonist_ch1>  (12) 
0.0

>  <TOX21_HRE_BLA_Agonist_ch2>  (12) 
0.0

>  <TOX21_HRE_BLA_Agonist_ratio>  (12) 
0.0

>  <TOX21_HRE_BLA_Agonist_viability>  (12) 
0.0

>  <TOX21_HSE_BLA_agonist_ch1>  (12) 
0.0

>  <TOX21_HSE_BLA_agonist_ch2>  (12) 
0.0

>  <TOX21_HSE_BLA_agonist_ratio>  (12) 
0.0

>  <TOX21_HSE_BLA_agonist_viability>  (12) 
0.0

>  <TOX21_LUC_Biochem>  (12) 
0.0

>  <TOX21_MMP_fitc>  (12) 
1.0

>  <TOX21_MMP_ratio_down>  (12) 
1.0

>  <TOX21_MMP_ratio_up>  (12) 
0.0

>  <TOX21_MMP_rhodamine>  (12) 
1.0

>  <TOX21_MMP_viability>  (12) 
0.0

>  <TOX21_NFkB_BLA_agonist_ch1>  (12) 
0.0

>  <TOX21_NFkB_BLA_agonist_ch2>  (12) 
0.0

>  <TOX21_NFkB_BLA_agonist_ratio>  (12) 
0.0

>  <TOX21_NFkB_BLA_agonist_viability>  (12) 
0.0

>  <TOX21_PGC_ERR_Agonist>  (12) 
0.0

>  <TOX21_PGC_ERR_Antagonist>  (12) 
1.0

>  <TOX21_PGC_ERR_viability>  (12) 
1.0

>  <TOX21_PPARd_BLA_Agonist_viability>  (12) 
1.0

>  <TOX21_PPARd_BLA_Antagonist_ch1>  (12) 
0.0

>  <TOX21_PPARd_BLA_Antagonist_ch2>  (12) 
1.0

>  <TOX21_PPARd_BLA_agonist_ch1>  (12) 
0.0

>  <TOX21_PPARd_BLA_agonist_ch2>  (12) 
0.0

>  <TOX21_PPARd_BLA_agonist_ratio>  (12) 
0.0

>  <TOX21_PPARd_BLA_antagonist_ratio>  (12) 
1.0

>  <TOX21_PPARd_BLA_antagonist_viability>  (12) 
0.0

>  <TOX21_PPARg_BLA_Agonist_ch1>  (12) 
0.0

>  <TOX21_PPARg_BLA_Agonist_ch2>  (12) 
0.0

>  <TOX21_PPARg_BLA_Agonist_ratio>  (12) 
0.0

>  <TOX21_PPARg_BLA_Antagonist_ch1>  (12) 
0.0

>  <TOX21_PPARg_BLA_Antagonist_ch2>  (12) 
1.0

>  <TOX21_PPARg_BLA_antagonist_ratio>  (12) 
1.0

>  <TOX21_PPARg_BLA_antagonist_viability>  (12) 
0.0

>  <TOX21_PR_BLA_Agonist_ch1>  (12) 
0.0

>  <TOX21_PR_BLA_Agonist_ch2>  (12) 
0.0

>  <TOX21_PR_BLA_Agonist_ratio>  (12) 
0.0

>  <TOX21_PR_BLA_Antagonist_ch1>  (12) 
0.0

>  <TOX21_PR_BLA_Antagonist_ch2>  (12) 
1.0

>  <TOX21_PR_BLA_Antagonist_ratio>  (12) 
1.0

>  <TOX21_PR_BLA_Antagonist_viability>  (12) 
0.0

>  <TOX21_PXR_Agonist>  (12) 
0.0

>  <TOX21_PXR_viability>  (12) 
1.0

>  <TOX21_RAR_LUC_Agonist>  (12) 
0.0

>  <TOX21_RAR_LUC_Agonist_viability>  (12) 
0.0

>  <TOX21_RAR_LUC_Antagonist_viability>  (12) 
0.0

>  <TOX21_RORg_LUC_CHO_Antagonist>  (12) 
0.0

>  <TOX21_RORg_LUC_CHO_Antagonist_viability>  (12) 
0.0

>  <TOX21_RT_HEK293_FLO_00hr_viability>  (12) 
0.0

>  <TOX21_RT_HEK293_FLO_08hr_viability>  (12) 
0.0

>  <TOX21_RT_HEK293_FLO_16hr_viability>  (12) 
0.0

>  <TOX21_RT_HEK293_FLO_24hr_viability>  (12) 
0.0

>  <TOX21_RT_HEK293_FLO_32hr_viability>  (12) 
0.0

>  <TOX21_RT_HEK293_FLO_40hr_viability>  (12) 
0.0

>  <TOX21_RT_HEK293_GLO_00hr_viability>  (12) 
0.0

>  <TOX21_RT_HEK293_GLO_08hr_viability>  (12) 
1.0

>  <TOX21_RT_HEK293_GLO_16hr_viability>  (12) 
1.0

>  <TOX21_RT_HEK293_GLO_24hr_viability>  (12) 
1.0

>  <TOX21_RT_HEK293_GLO_32hr_viability>  (12) 
1.0

>  <TOX21_RT_HEK293_GLO_40hr_viability>  (12) 
1.0

>  <TOX21_RT_HEPG2_FLO_00hr_ctrl_viability>  (12) 
0.0

>  <TOX21_RT_HEPG2_FLO_08hr_viability>  (12) 
0.0

>  <TOX21_RT_HEPG2_FLO_16hr_ctrl_viability>  (12) 
1.0

>  <TOX21_RT_HEPG2_FLO_24hr_viability>  (12) 
1.0

>  <TOX21_RT_HEPG2_FLO_32hr_ctrl_viability>  (12) 
1.0

>  <TOX21_RT_HEPG2_GLO_00hr_ctrl_viability>  (12) 
0.0

>  <TOX21_RT_HEPG2_GLO_08hr_ctrl_viability>  (12) 
0.0

>  <TOX21_RT_HEPG2_GLO_16hr_ctrl_viability>  (12) 
0.0

>  <TOX21_RT_HEPG2_GLO_24hr_ctrl_viability>  (12) 
0.0

>  <TOX21_RT_HEPG2_GLO_32hr_ctrl_viability>  (12) 
0.0

>  <TOX21_RT_HEPG2_GLO_40hr_viability>  (12) 
0.0

>  <TOX21_RXR_BLA_Agonist_ch1>  (12) 
0.0

>  <TOX21_RXR_BLA_Agonist_ch2>  (12) 
0.0

>  <TOX21_RXR_BLA_Agonist_ratio>  (12) 
0.0

>  <TOX21_RXR_BLA_Agonist_viability>  (12) 
0.0

>  <TOX21_SBE_BLA_Agonist_ch1>  (12) 
0.0

>  <TOX21_SBE_BLA_Agonist_ch2>  (12) 
0.0

>  <TOX21_SBE_BLA_Agonist_ratio>  (12) 
0.0

>  <TOX21_SBE_BLA_Agonist_viability>  (12) 
0.0

>  <TOX21_SBE_BLA_Antagonist_ch1>  (12) 
0.0

>  <TOX21_SBE_BLA_Antagonist_ch2>  (12) 
1.0

>  <TOX21_SBE_BLA_Antagonist_ratio>  (12) 
1.0

>  <TOX21_SBE_BLA_Antagonist_viability>  (12) 
0.0

>  <TOX21_SSH_3T3_GLI3_Agonist>  (12) 
0.0

>  <TOX21_SSH_3T3_GLI3_Agonist_viability>  (12) 
1.0

>  <TOX21_SSH_3T3_GLI3_Antagonist>  (12) 
1.0

>  <TOX21_SSH_3T3_GLI3_Antagonist_viability>  (12) 
1.0

>  <TOX21_TRHR_HEK293_Agonist>  (12) 
0.0

>  <TOX21_TRHR_HEK293_Antagonist>  (12) 
0.0

>  <TOX21_TR_LUC_GH3_Agonist>  (12) 
0.0

>  <TOX21_TR_LUC_GH3_Antagonist>  (12) 
1.0

>  <TOX21_TR_LUC_GH3_Antagonist_viability>  (12) 
1.0

>  <TOX21_TSHR_Agonist_ch2>  (12) 
0.0

>  <TOX21_TSHR_Antagonist_ch2>  (12) 
0.0

>  <TOX21_TSHR_Antagonist_ratio>  (12) 
0.0

>  <TOX21_TSHR_HTRF_Agonist_ch1>  (12) 
1.0

>  <TOX21_TSHR_HTRF_Antagonist_ch1>  (12) 
0.0

>  <TOX21_TSHR_wt_HTRF_ch1>  (12) 
0.0

>  <TOX21_TSHR_wt_ch2>  (12) 
0.0

>  <TOX21_TSHR_wt_ratio>  (12) 
0.0

>  <TOX21_VDR_BLA_Agonist_viability>  (12) 
1.0

>  <TOX21_VDR_BLA_Antagonist_ch1>  (12) 
0.0

>  <TOX21_VDR_BLA_Antagonist_ch2>  (12) 
0.0

>  <TOX21_VDR_BLA_agonist_ch1>  (12) 
0.0

>  <TOX21_VDR_BLA_agonist_ch2>  (12) 
0.0

>  <TOX21_VDR_BLA_agonist_ratio>  (12) 
0.0

>  <TOX21_VDR_BLA_antagonist_ratio>  (12) 
0.0

>  <TOX21_VDR_BLA_antagonist_viability>  (12) 
0.0

>  <TOX21_p53_BLA_p1_ch1>  (12) 
1.0

>  <TOX21_p53_BLA_p1_ch2>  (12) 
0.0

>  <TOX21_p53_BLA_p1_ratio>  (12) 
1.0

>  <TOX21_p53_BLA_p1_viability>  (12) 
0.0

>  <TOX21_p53_BLA_p2_ch1>  (12) 
1.0

>  <TOX21_p53_BLA_p2_ch2>  (12) 
1.0

>  <TOX21_p53_BLA_p2_ratio>  (12) 
1.0

>  <TOX21_p53_BLA_p2_viability>  (12) 
0.0

>  <TOX21_p53_BLA_p3_ch1>  (12) 
1.0

>  <TOX21_p53_BLA_p3_ch2>  (12) 
1.0

>  <TOX21_p53_BLA_p3_ratio>  (12) 
1.0

>  <TOX21_p53_BLA_p4_ch1>  (12) 
1.0

>  <TOX21_p53_BLA_p4_ch2>  (12) 
0.0

>  <TOX21_p53_BLA_p4_ratio>  (12) 
1.0

>  <TOX21_p53_BLA_p4_viability>  (12) 
1.0

>  <TOX21_p53_BLA_p5_ch1>  (12) 
1.0

>  <TOX21_p53_BLA_p5_ch2>  (12) 
1.0

>  <TOX21_p53_BLA_p5_ratio>  (12) 
1.0

>  <TOX21_p53_BLA_p5_viability>  (12) 
0.0

>  <Tanguay_ZF_120hpf_AXIS_up>  (12) 
1.0

>  <Tanguay_ZF_120hpf_ActivityScore>  (12) 
1.0

>  <Tanguay_ZF_120hpf_BRAI_up>  (12) 
1.0

>  <Tanguay_ZF_120hpf_CFIN_up>  (12) 
0.0

>  <Tanguay_ZF_120hpf_CIRC_up>  (12) 
1.0

>  <Tanguay_ZF_120hpf_EYE_up>  (12) 
1.0

>  <Tanguay_ZF_120hpf_JAW_up>  (12) 
1.0

>  <Tanguay_ZF_120hpf_MORT_up>  (12) 
1.0

>  <Tanguay_ZF_120hpf_NC_up>  (12) 
0.0

>  <Tanguay_ZF_120hpf_OTIC_up>  (12) 
1.0

>  <Tanguay_ZF_120hpf_PE_up>  (12) 
1.0

>  <Tanguay_ZF_120hpf_PFIN_up>  (12) 
1.0

>  <Tanguay_ZF_120hpf_PIG_up>  (12) 
1.0

>  <Tanguay_ZF_120hpf_SNOU_up>  (12) 
1.0

>  <Tanguay_ZF_120hpf_SOMI_up>  (12) 
1.0

>  <Tanguay_ZF_120hpf_SWIM_up>  (12) 
1.0

>  <Tanguay_ZF_120hpf_TRUN_up>  (12) 
1.0

>  <Tanguay_ZF_120hpf_TR_up>  (12) 
1.0

>  <Tanguay_ZF_120hpf_YSE_up>  (12) 
1.0

>  <UPITT_HCI_U2OS_AR_TIF2_Nucleoli_Agonist>  (12) 
1.0

>  <UPITT_HCI_U2OS_AR_TIF2_Nucleoli_Antagonist>  (12) 
1.0

>  <UPITT_HCI_U2OS_AR_TIF2_Nucleoli_Cytoplasm_Ratio_Agonist>  (12) 
1.0

>  <UPITT_HCI_U2OS_AR_TIF2_Nucleoli_Cytoplasm_Ratio_Antagonist>  (12) 
1.0

>  <NVS_NR_mERa>  (12) 
1.0

$$$$

     RDKit          3D

 17 18  0  0  0  0  0  0  0  0999 V2000
    0.0000    0.0000    0.0000 C   0  0  0  0  0  0  0  0  0  0  0  0
    0.0000    0.0000    0.0000 C   0  0  0  0  0  0  0  0  0  0  0  0
    0.0000    0.0000    0.0000 C   0  0  0  0  0  0  0  0  0  0  0  0
    0.0000    0.0000    0.0000 C   0  0  0  0  0  0  0  0  0  0  0  0
    0.0000    0.0000    0.0000 C   0  0  0  0  0  0  0  0  0  0  0  0
    0.0000    0.0000    0.0000 C   0  0  0  0  0  0  0  0  0  0  0  0
    0.0000    0.0000    0.0000 C   0  0  0  0  0  0  0  0  0  0  0  0
    0.0000    0.0000    0.0000 C   0  0  0  0  0  0  0  0  0  0  0  0
    0.0000    0.0000    0.0000 C   0  0  0  0  0  0  0  0  0  0  0  0
    0.0000    0.0000    0.0000 O   0  0  0  0  0  0  0  0  0  0  0  0
    0.0000    0.0000    0.0000 C   0  0  0  0  0  0  0  0  0  0  0  0
    0.0000    0.0000    0.0000 C   0  0  0  0  0  0  0  0  0  0  0  0
    0.0000    0.0000    0.0000 C   0  0  0  0  0  0  0  0  0  0  0  0
    0.0000    0.0000    0.0000 C   0  0  0  0  0  0  0  0  0  0  0  0
    0.0000    0.0000    0.0000 C   0  0  0  0  0  0  0  0  0  0  0  0
    0.0000    0.0000    0.0000 C   0  0  0  0  0  0  0  0  0  0  0  0
    0.0000    0.0000    0.0000 O   0  0  0  0  0  0  0  0  0  0  0  0
  1  2  1  0
  2  3  1  0
  2  4  1  0
  4  5  2  0
  5  6  1  0
  6  7  2  0
  7  8  1  0
  8  9  2  0
  7 10  1  0
  2 11  1  0
 11 12  2  0
 12 13  1  0
 13 14  2  0
 14 15  1  0
 15 16  2  0
 14 17  1  0
  9  4  1  0
 16 11  1  0
M  END
>  <CASRN>  (13) 
80-05-7

>  <Name>  (13) 
Bisphenol A

>  <Active>  (13) 
37

>  <Inactive>  (13) 
6

>  <Bioactivity>  (13) 
Active

>  <Min LEL>  (13) 
2.0

>  <Max HDT>  (13) 
1000.0

>  <Class>  (13) 
1

>  <Code>  (13) 
C80057

>  <NVS_NR_hER>  (13) 
1.0

>  <NVS_NR_cAR>  (13) 
1.0

>  <NVS_NR_hAR>  (13) 
1.0

>  <NVS_NR_hGR>  (13) 
1.0

>  <NVS_NR_hPR>  (13) 
1.0

>  <NVS_NR_rAR>  (13) 
1.0

>  <OT_ER_ERaERb_1440>  (13) 
1.0

>  <OT_FXR_FXRSRC1_0480>  (13) 
1.0

>  <OT_PPARg_PPARgSRC1_1440>  (13) 
0.0

>  <OT_FXR_FXRSRC1_1440>  (13) 
1.0

>  <OT_NURR1_NURR1RXRa_0480>  (13) 
0.0

>  <OT_NURR1_NURR1RXRa_1440>  (13) 
0.0

>  <OT_PPARg_PPARgSRC1_0480>  (13) 
0.0

>  <OT_AR_ARELUC_AG_1440>  (13) 
0.0

>  <OT_ERa_EREGFP_0120>  (13) 
1.0

>  <BSK_3C_HLADR_down>  (13) 
0.0

>  <BSK_3C_Vis_down>  (13) 
1.0

>  <BSK_3C_uPAR_down>  (13) 
0.0

>  <ATG_CAR_TRANS_up>  (13) 
0.0

>  <ATG_E2F_CIS_dn>  (13) 
0.0

>  <ATG_EGR_CIS_up>  (13) 
1.0

>  <ATG_ERa_TRANS_dn>  (13) 
0.0

>  <ATG_ERa_TRANS_up>  (13) 
1.0

>  <ATG_FXR_TRANS_dn>  (13) 
0.0

>  <ATG_GLI_CIS_dn>  (13) 
0.0

>  <ATG_GRE_CIS_up>  (13) 
0.0

>  <ATG_LXRa_TRANS_dn>  (13) 
0.0

>  <ATG_LXRa_TRANS_up>  (13) 
0.0

>  <ATG_NRF1_CIS_up>  (13) 
0.0

>  <ATG_NURR1_TRANS_up>  (13) 
0.0

>  <ATG_Sox_CIS_dn>  (13) 
0.0

>  <ATG_Sox_CIS_up>  (13) 
0.0

>  <ATG_Sp1_CIS_up>  (13) 
0.0

>  <ATG_TGFb_CIS_up>  (13) 
0.0

>  <TOX21_ARE_BLA_agonist_ratio>  (13) 
1.0

>  <TOX21_RAR_LUC_Antagonist>  (13) 
0.0

>  <ATG_LXRb_TRANS_dn>  (13) 
0.0

>  <ATG_CAR_TRANS_dn>  (13) 
0.0

>  <ATG_BRE_CIS_dn>  (13) 
0.0

>  <ATG_E2F_CIS_up>  (13) 
0.0

>  <TOX21_TSHR_Agonist_ratio>  (13) 
1.0

>  <ACEA_ER_80hr>  (13) 
1.0

>  <TOX21_CAR_Agonist_viabillity>  (13) 
0.0

>  <TOX21_PR_BLA_Agonist_viability>  (13) 
0.0

>  <TOX21_RT_HEPG2_FLO_40hr_ctrl_viability>  (13) 
0.0

>  <TOX21_AhR_LUC_Agonist_viability>  (13) 
0.0

>  <TOX21_ERR_viability>  (13) 
1.0

>  <TOX21_p53_BLA_p3_viability>  (13) 
0.0

>  <NVS_NR_bER>  (13) 
1.0

>  <ACEA_AR_agonist_80hr>  (13) 
0.0

>  <ACEA_AR_agonist_AUC_viability>  (13) 
1.0

>  <ACEA_AR_antagonist_80hr>  (13) 
1.0

>  <ACEA_AR_antagonist_AUC_viability>  (13) 
1.0

>  <ACEA_ER_AUC_viability>  (13) 
0.0

>  <APR_HepG2_CellCycleArrest_1h_dn>  (13) 
0.0

>  <APR_HepG2_CellCycleArrest_1h_up>  (13) 
0.0

>  <APR_HepG2_CellCycleArrest_24h_dn>  (13) 
0.0

>  <APR_HepG2_CellCycleArrest_24h_up>  (13) 
0.0

>  <APR_HepG2_CellCycleArrest_72h_dn>  (13) 
0.0

>  <APR_HepG2_CellCycleArrest_72h_up>  (13) 
0.0

>  <APR_HepG2_CellLoss_1h_dn>  (13) 
0.0

>  <APR_HepG2_CellLoss_1h_up>  (13) 
0.0

>  <APR_HepG2_CellLoss_24h_dn>  (13) 
1.0

>  <APR_HepG2_CellLoss_24h_up>  (13) 
0.0

>  <APR_HepG2_CellLoss_72h_dn>  (13) 
1.0

>  <APR_HepG2_CellLoss_72h_up>  (13) 
0.0

>  <APR_HepG2_MicrotubuleCSK_1h_dn>  (13) 
0.0

>  <APR_HepG2_MicrotubuleCSK_1h_up>  (13) 
0.0

>  <APR_HepG2_MicrotubuleCSK_24h_dn>  (13) 
0.0

>  <APR_HepG2_MicrotubuleCSK_24h_up>  (13) 
0.0

>  <APR_HepG2_MicrotubuleCSK_72h_dn>  (13) 
0.0

>  <APR_HepG2_MicrotubuleCSK_72h_up>  (13) 
0.0

>  <APR_HepG2_MitoMass_1h_dn>  (13) 
0.0

>  <APR_HepG2_MitoMass_1h_up>  (13) 
0.0

>  <APR_HepG2_MitoMass_24h_dn>  (13) 
1.0

>  <APR_HepG2_MitoMass_24h_up>  (13) 
0.0

>  <APR_HepG2_MitoMass_72h_dn>  (13) 
0.0

>  <APR_HepG2_MitoMass_72h_up>  (13) 
0.0

>  <APR_HepG2_MitoMembPot_1h_dn>  (13) 
0.0

>  <APR_HepG2_MitoMembPot_1h_up>  (13) 
0.0

>  <APR_HepG2_MitoMembPot_24h_dn>  (13) 
1.0

>  <APR_HepG2_MitoMembPot_24h_up>  (13) 
0.0

>  <APR_HepG2_MitoMembPot_72h_dn>  (13) 
1.0

>  <APR_HepG2_MitoMembPot_72h_up>  (13) 
0.0

>  <APR_HepG2_MitoticArrest_1h_dn>  (13) 
0.0

>  <APR_HepG2_MitoticArrest_1h_up>  (13) 
0.0

>  <APR_HepG2_MitoticArrest_24h_dn>  (13) 
0.0

>  <APR_HepG2_MitoticArrest_24h_up>  (13) 
0.0

>  <APR_HepG2_MitoticArrest_72h_dn>  (13) 
0.0

>  <APR_HepG2_MitoticArrest_72h_up>  (13) 
1.0

>  <APR_HepG2_NuclearSize_1h_dn>  (13) 
0.0

>  <APR_HepG2_NuclearSize_1h_up>  (13) 
0.0

>  <APR_HepG2_NuclearSize_24h_dn>  (13) 
0.0

>  <APR_HepG2_NuclearSize_24h_up>  (13) 
0.0

>  <APR_HepG2_NuclearSize_72h_dn>  (13) 
0.0

>  <APR_HepG2_NuclearSize_72h_up>  (13) 
0.0

>  <APR_HepG2_OxidativeStress_1h_dn>  (13) 
0.0

>  <APR_HepG2_OxidativeStress_1h_up>  (13) 
0.0

>  <APR_HepG2_OxidativeStress_24h_dn>  (13) 
0.0

>  <APR_HepG2_OxidativeStress_24h_up>  (13) 
1.0

>  <APR_HepG2_OxidativeStress_72h_dn>  (13) 
0.0

>  <APR_HepG2_OxidativeStress_72h_up>  (13) 
1.0

>  <APR_HepG2_StressKinase_1h_dn>  (13) 
0.0

>  <APR_HepG2_StressKinase_1h_up>  (13) 
0.0

>  <APR_HepG2_StressKinase_24h_dn>  (13) 
0.0

>  <APR_HepG2_StressKinase_24h_up>  (13) 
0.0

>  <APR_HepG2_StressKinase_72h_dn>  (13) 
0.0

>  <APR_HepG2_StressKinase_72h_up>  (13) 
0.0

>  <APR_HepG2_p53Act_1h_dn>  (13) 
0.0

>  <APR_HepG2_p53Act_1h_up>  (13) 
0.0

>  <APR_HepG2_p53Act_24h_dn>  (13) 
0.0

>  <APR_HepG2_p53Act_24h_up>  (13) 
0.0

>  <APR_HepG2_p53Act_72h_dn>  (13) 
0.0

>  <APR_HepG2_p53Act_72h_up>  (13) 
0.0

>  <APR_Hepat_Apoptosis_1hr_dn>  (13) 
0.0

>  <APR_Hepat_Apoptosis_1hr_up>  (13) 
0.0

>  <APR_Hepat_Apoptosis_24hr_dn>  (13) 
0.0

>  <APR_Hepat_Apoptosis_24hr_up>  (13) 
0.0

>  <APR_Hepat_Apoptosis_48hr_dn>  (13) 
0.0

>  <APR_Hepat_Apoptosis_48hr_up>  (13) 
0.0

>  <APR_Hepat_CellLoss_1hr_dn>  (13) 
0.0

>  <APR_Hepat_CellLoss_1hr_up>  (13) 
0.0

>  <APR_Hepat_CellLoss_24hr_dn>  (13) 
1.0

>  <APR_Hepat_CellLoss_24hr_up>  (13) 
0.0

>  <APR_Hepat_CellLoss_48hr_dn>  (13) 
1.0

>  <APR_Hepat_CellLoss_48hr_up>  (13) 
0.0

>  <APR_Hepat_DNADamage_1hr_dn>  (13) 
0.0

>  <APR_Hepat_DNADamage_1hr_up>  (13) 
0.0

>  <APR_Hepat_DNADamage_24hr_dn>  (13) 
0.0

>  <APR_Hepat_DNADamage_24hr_up>  (13) 
1.0

>  <APR_Hepat_DNADamage_48hr_dn>  (13) 
0.0

>  <APR_Hepat_DNADamage_48hr_up>  (13) 
1.0

>  <APR_Hepat_DNATexture_1hr_dn>  (13) 
0.0

>  <APR_Hepat_DNATexture_1hr_up>  (13) 
0.0

>  <APR_Hepat_DNATexture_24hr_dn>  (13) 
0.0

>  <APR_Hepat_DNATexture_24hr_up>  (13) 
0.0

>  <APR_Hepat_DNATexture_48hr_dn>  (13) 
0.0

>  <APR_Hepat_DNATexture_48hr_up>  (13) 
0.0

>  <APR_Hepat_LysosomalMass_1hr_dn>  (13) 
0.0

>  <APR_Hepat_LysosomalMass_1hr_up>  (13) 
0.0

>  <APR_Hepat_LysosomalMass_24hr_dn>  (13) 
0.0

>  <APR_Hepat_LysosomalMass_24hr_up>  (13) 
0.0

>  <APR_Hepat_LysosomalMass_48hr_dn>  (13) 
0.0

>  <APR_Hepat_LysosomalMass_48hr_up>  (13) 
0.0

>  <APR_Hepat_MitoFxnI_1hr_dn>  (13) 
0.0

>  <APR_Hepat_MitoFxnI_1hr_up>  (13) 
0.0

>  <APR_Hepat_MitoFxnI_24hr_dn>  (13) 
0.0

>  <APR_Hepat_MitoFxnI_24hr_up>  (13) 
0.0

>  <APR_Hepat_MitoFxnI_48hr_dn>  (13) 
0.0

>  <APR_Hepat_MitoFxnI_48hr_up>  (13) 
0.0

>  <APR_Hepat_NuclearSize_1hr_dn>  (13) 
0.0

>  <APR_Hepat_NuclearSize_1hr_up>  (13) 
0.0

>  <APR_Hepat_NuclearSize_24hr_dn>  (13) 
0.0

>  <APR_Hepat_NuclearSize_24hr_up>  (13) 
0.0

>  <APR_Hepat_NuclearSize_48hr_dn>  (13) 
0.0

>  <APR_Hepat_NuclearSize_48hr_up>  (13) 
0.0

>  <APR_Hepat_Steatosis_1hr_dn>  (13) 
0.0

>  <APR_Hepat_Steatosis_1hr_up>  (13) 
0.0

>  <APR_Hepat_Steatosis_24hr_dn>  (13) 
0.0

>  <APR_Hepat_Steatosis_24hr_up>  (13) 
1.0

>  <APR_Hepat_Steatosis_48hr_dn>  (13) 
0.0

>  <APR_Hepat_Steatosis_48hr_up>  (13) 
0.0

>  <ATG_AP_1_CIS_dn>  (13) 
0.0

>  <ATG_AP_1_CIS_up>  (13) 
1.0

>  <ATG_AP_2_CIS_dn>  (13) 
1.0

>  <ATG_AP_2_CIS_up>  (13) 
0.0

>  <ATG_AR_TRANS_dn>  (13) 
0.0

>  <ATG_AR_TRANS_up>  (13) 
0.0

>  <ATG_Ahr_CIS_dn>  (13) 
0.0

>  <ATG_Ahr_CIS_up>  (13) 
1.0

>  <ATG_BRE_CIS_up>  (13) 
0.0

>  <ATG_CMV_CIS_dn>  (13) 
0.0

>  <ATG_CMV_CIS_up>  (13) 
1.0

>  <ATG_CRE_CIS_dn>  (13) 
0.0

>  <ATG_CRE_CIS_up>  (13) 
1.0

>  <ATG_C_EBP_CIS_dn>  (13) 
0.0

>  <ATG_C_EBP_CIS_up>  (13) 
0.0

>  <ATG_DR4_LXR_CIS_dn>  (13) 
1.0

>  <ATG_DR4_LXR_CIS_up>  (13) 
0.0

>  <ATG_DR5_CIS_dn>  (13) 
0.0

>  <ATG_DR5_CIS_up>  (13) 
1.0

>  <ATG_EGR_CIS_dn>  (13) 
0.0

>  <ATG_ERE_CIS_dn>  (13) 
0.0

>  <ATG_ERE_CIS_up>  (13) 
1.0

>  <ATG_ERRa_TRANS_dn>  (13) 
0.0

>  <ATG_ERRa_TRANS_up>  (13) 
0.0

>  <ATG_ERRg_TRANS_dn>  (13) 
0.0

>  <ATG_ERRg_TRANS_up>  (13) 
0.0

>  <ATG_E_Box_CIS_dn>  (13) 
0.0

>  <ATG_E_Box_CIS_up>  (13) 
0.0

>  <ATG_Ets_CIS_dn>  (13) 
0.0

>  <ATG_Ets_CIS_up>  (13) 
0.0

>  <ATG_FXR_TRANS_up>  (13) 
0.0

>  <ATG_FoxA2_CIS_dn>  (13) 
0.0

>  <ATG_FoxA2_CIS_up>  (13) 
0.0

>  <ATG_FoxO_CIS_dn>  (13) 
0.0

>  <ATG_FoxO_CIS_up>  (13) 
0.0

>  <ATG_GAL4_TRANS_dn>  (13) 
0.0

>  <ATG_GAL4_TRANS_up>  (13) 
0.0

>  <ATG_GATA_CIS_dn>  (13) 
0.0

>  <ATG_GATA_CIS_up>  (13) 
0.0

>  <ATG_GLI_CIS_up>  (13) 
0.0

>  <ATG_GRE_CIS_dn>  (13) 
0.0

>  <ATG_GR_TRANS_dn>  (13) 
0.0

>  <ATG_GR_TRANS_up>  (13) 
0.0

>  <ATG_HIF1a_CIS_dn>  (13) 
0.0

>  <ATG_HIF1a_CIS_up>  (13) 
0.0

>  <ATG_HNF4a_TRANS_dn>  (13) 
0.0

>  <ATG_HNF4a_TRANS_up>  (13) 
0.0

>  <ATG_HNF6_CIS_dn>  (13) 
0.0

>  <ATG_HNF6_CIS_up>  (13) 
0.0

>  <ATG_HSE_CIS_dn>  (13) 
0.0

>  <ATG_HSE_CIS_up>  (13) 
1.0

>  <ATG_Hpa5_TRANS_dn>  (13) 
0.0

>  <ATG_Hpa5_TRANS_up>  (13) 
0.0

>  <ATG_IR1_CIS_dn>  (13) 
0.0

>  <ATG_IR1_CIS_up>  (13) 
0.0

>  <ATG_ISRE_CIS_dn>  (13) 
1.0

>  <ATG_ISRE_CIS_up>  (13) 
0.0

>  <ATG_LXRb_TRANS_up>  (13) 
0.0

>  <ATG_MRE_CIS_dn>  (13) 
0.0

>  <ATG_MRE_CIS_up>  (13) 
1.0

>  <ATG_M_06_CIS_dn>  (13) 
0.0

>  <ATG_M_06_CIS_up>  (13) 
0.0

>  <ATG_M_06_TRANS_dn>  (13) 
0.0

>  <ATG_M_06_TRANS_up>  (13) 
0.0

>  <ATG_M_19_CIS_dn>  (13) 
0.0

>  <ATG_M_19_CIS_up>  (13) 
0.0

>  <ATG_M_19_TRANS_dn>  (13) 
0.0

>  <ATG_M_19_TRANS_up>  (13) 
0.0

>  <ATG_M_32_CIS_dn>  (13) 
0.0

>  <ATG_M_32_CIS_up>  (13) 
0.0

>  <ATG_M_32_TRANS_dn>  (13) 
0.0

>  <ATG_M_32_TRANS_up>  (13) 
0.0

>  <ATG_M_61_CIS_dn>  (13) 
0.0

>  <ATG_M_61_CIS_up>  (13) 
0.0

>  <ATG_M_61_TRANS_dn>  (13) 
0.0

>  <ATG_M_61_TRANS_up>  (13) 
0.0

>  <ATG_Myb_CIS_dn>  (13) 
0.0

>  <ATG_Myb_CIS_up>  (13) 
0.0

>  <ATG_Myc_CIS_dn>  (13) 
0.0

>  <ATG_Myc_CIS_up>  (13) 
0.0

>  <ATG_NFI_CIS_dn>  (13) 
0.0

>  <ATG_NFI_CIS_up>  (13) 
0.0

>  <ATG_NF_kB_CIS_dn>  (13) 
0.0

>  <ATG_NF_kB_CIS_up>  (13) 
0.0

>  <ATG_NRF1_CIS_dn>  (13) 
0.0

>  <ATG_NRF2_ARE_CIS_dn>  (13) 
0.0

>  <ATG_NRF2_ARE_CIS_up>  (13) 
1.0

>  <ATG_NURR1_TRANS_dn>  (13) 
0.0

>  <ATG_Oct_MLP_CIS_dn>  (13) 
0.0

>  <ATG_Oct_MLP_CIS_up>  (13) 
1.0

>  <ATG_PBREM_CIS_dn>  (13) 
0.0

>  <ATG_PBREM_CIS_up>  (13) 
1.0

>  <ATG_PPARa_TRANS_dn>  (13) 
0.0

>  <ATG_PPARa_TRANS_up>  (13) 
0.0

>  <ATG_PPARd_TRANS_dn>  (13) 
0.0

>  <ATG_PPARd_TRANS_up>  (13) 
0.0

>  <ATG_PPARg_TRANS_dn>  (13) 
0.0

>  <ATG_PPARg_TRANS_up>  (13) 
0.0

>  <ATG_PPRE_CIS_dn>  (13) 
0.0

>  <ATG_PPRE_CIS_up>  (13) 
1.0

>  <ATG_PXRE_CIS_dn>  (13) 
0.0

>  <ATG_PXRE_CIS_up>  (13) 
1.0

>  <ATG_PXR_TRANS_dn>  (13) 
0.0

>  <ATG_PXR_TRANS_up>  (13) 
1.0

>  <ATG_Pax6_CIS_dn>  (13) 
0.0

>  <ATG_Pax6_CIS_up>  (13) 
1.0

>  <ATG_RARa_TRANS_dn>  (13) 
0.0

>  <ATG_RARa_TRANS_up>  (13) 
0.0

>  <ATG_RARb_TRANS_dn>  (13) 
0.0

>  <ATG_RARb_TRANS_up>  (13) 
0.0

>  <ATG_RARg_TRANS_dn>  (13) 
0.0

>  <ATG_RARg_TRANS_up>  (13) 
0.0

>  <ATG_RORE_CIS_dn>  (13) 
0.0

>  <ATG_RORE_CIS_up>  (13) 
0.0

>  <ATG_RORb_TRANS_dn>  (13) 
0.0

>  <ATG_RORb_TRANS_up>  (13) 
0.0

>  <ATG_RORg_TRANS_dn>  (13) 
0.0

>  <ATG_RORg_TRANS_up>  (13) 
0.0

>  <ATG_RXRa_TRANS_dn>  (13) 
0.0

>  <ATG_RXRa_TRANS_up>  (13) 
0.0

>  <ATG_RXRb_TRANS_dn>  (13) 
0.0

>  <ATG_RXRb_TRANS_up>  (13) 
0.0

>  <ATG_SREBP_CIS_dn>  (13) 
0.0

>  <ATG_SREBP_CIS_up>  (13) 
1.0

>  <ATG_STAT3_CIS_dn>  (13) 
0.0

>  <ATG_STAT3_CIS_up>  (13) 
0.0

>  <ATG_Sp1_CIS_dn>  (13) 
0.0

>  <ATG_TAL_CIS_dn>  (13) 
0.0

>  <ATG_TAL_CIS_up>  (13) 
0.0

>  <ATG_TA_CIS_dn>  (13) 
0.0

>  <ATG_TA_CIS_up>  (13) 
1.0

>  <ATG_TCF_b_cat_CIS_dn>  (13) 
1.0

>  <ATG_TCF_b_cat_CIS_up>  (13) 
0.0

>  <ATG_TGFb_CIS_dn>  (13) 
0.0

>  <ATG_THRa1_TRANS_dn>  (13) 
0.0

>  <ATG_THRa1_TRANS_up>  (13) 
0.0

>  <ATG_VDRE_CIS_dn>  (13) 
0.0

>  <ATG_VDRE_CIS_up>  (13) 
1.0

>  <ATG_VDR_TRANS_dn>  (13) 
0.0

>  <ATG_VDR_TRANS_up>  (13) 
0.0

>  <ATG_XTT_Cytotoxicity_up>  (13) 
0.0

>  <ATG_Xbp1_CIS_dn>  (13) 
0.0

>  <ATG_Xbp1_CIS_up>  (13) 
1.0

>  <ATG_p53_CIS_dn>  (13) 
1.0

>  <ATG_p53_CIS_up>  (13) 
0.0

>  <BSK_3C_Eselectin_down>  (13) 
0.0

>  <BSK_3C_Eselectin_up>  (13) 
0.0

>  <BSK_3C_HLADR_up>  (13) 
0.0

>  <BSK_3C_ICAM1_down>  (13) 
0.0

>  <BSK_3C_ICAM1_up>  (13) 
0.0

>  <BSK_3C_IL8_down>  (13) 
0.0

>  <BSK_3C_IL8_up>  (13) 
0.0

>  <BSK_3C_MCP1_down>  (13) 
0.0

>  <BSK_3C_MCP1_up>  (13) 
0.0

>  <BSK_3C_MIG_down>  (13) 
0.0

>  <BSK_3C_MIG_up>  (13) 
0.0

>  <BSK_3C_Proliferation_down>  (13) 
1.0

>  <BSK_3C_Proliferation_up>  (13) 
0.0

>  <BSK_3C_SRB_down>  (13) 
0.0

>  <BSK_3C_SRB_up>  (13) 
0.0

>  <BSK_3C_Thrombomodulin_down>  (13) 
0.0

>  <BSK_3C_Thrombomodulin_up>  (13) 
0.0

>  <BSK_3C_TissueFactor_down>  (13) 
0.0

>  <BSK_3C_TissueFactor_up>  (13) 
0.0

>  <BSK_3C_VCAM1_down>  (13) 
0.0

>  <BSK_3C_VCAM1_up>  (13) 
0.0

>  <BSK_3C_Vis_up>  (13) 
0.0

>  <BSK_3C_uPAR_up>  (13) 
0.0

>  <BSK_4H_Eotaxin3_down>  (13) 
0.0

>  <BSK_4H_Eotaxin3_up>  (13) 
0.0

>  <BSK_4H_MCP1_down>  (13) 
0.0

>  <BSK_4H_MCP1_up>  (13) 
0.0

>  <BSK_4H_Pselectin_down>  (13) 
0.0

>  <BSK_4H_Pselectin_up>  (13) 
0.0

>  <BSK_4H_SRB_down>  (13) 
0.0

>  <BSK_4H_SRB_up>  (13) 
0.0

>  <BSK_4H_VCAM1_down>  (13) 
0.0

>  <BSK_4H_VCAM1_up>  (13) 
0.0

>  <BSK_4H_VEGFRII_down>  (13) 
0.0

>  <BSK_4H_VEGFRII_up>  (13) 
0.0

>  <BSK_4H_uPAR_down>  (13) 
0.0

>  <BSK_4H_uPAR_up>  (13) 
0.0

>  <BSK_BE3C_HLADR_down>  (13) 
0.0

>  <BSK_BE3C_HLADR_up>  (13) 
0.0

>  <BSK_BE3C_IL1a_down>  (13) 
0.0

>  <BSK_BE3C_IL1a_up>  (13) 
0.0

>  <BSK_BE3C_IP10_down>  (13) 
0.0

>  <BSK_BE3C_IP10_up>  (13) 
0.0

>  <BSK_BE3C_MIG_down>  (13) 
0.0

>  <BSK_BE3C_MIG_up>  (13) 
0.0

>  <BSK_BE3C_MMP1_down>  (13) 
0.0

>  <BSK_BE3C_MMP1_up>  (13) 
0.0

>  <BSK_BE3C_PAI1_down>  (13) 
0.0

>  <BSK_BE3C_PAI1_up>  (13) 
0.0

>  <BSK_BE3C_SRB_down>  (13) 
0.0

>  <BSK_BE3C_SRB_up>  (13) 
0.0

>  <BSK_BE3C_TGFb1_down>  (13) 
0.0

>  <BSK_BE3C_TGFb1_up>  (13) 
0.0

>  <BSK_BE3C_tPA_down>  (13) 
0.0

>  <BSK_BE3C_tPA_up>  (13) 
0.0

>  <BSK_BE3C_uPAR_down>  (13) 
0.0

>  <BSK_BE3C_uPAR_up>  (13) 
0.0

>  <BSK_BE3C_uPA_down>  (13) 
0.0

>  <BSK_BE3C_uPA_up>  (13) 
0.0

>  <BSK_CASM3C_HLADR_down>  (13) 
0.0

>  <BSK_CASM3C_HLADR_up>  (13) 
0.0

>  <BSK_CASM3C_IL6_down>  (13) 
0.0

>  <BSK_CASM3C_IL6_up>  (13) 
0.0

>  <BSK_CASM3C_IL8_down>  (13) 
0.0

>  <BSK_CASM3C_IL8_up>  (13) 
0.0

>  <BSK_CASM3C_LDLR_down>  (13) 
0.0

>  <BSK_CASM3C_LDLR_up>  (13) 
0.0

>  <BSK_CASM3C_MCP1_down>  (13) 
0.0

>  <BSK_CASM3C_MCP1_up>  (13) 
0.0

>  <BSK_CASM3C_MCSF_down>  (13) 
0.0

>  <BSK_CASM3C_MCSF_up>  (13) 
0.0

>  <BSK_CASM3C_MIG_down>  (13) 
0.0

>  <BSK_CASM3C_MIG_up>  (13) 
0.0

>  <BSK_CASM3C_Proliferation_down>  (13) 
0.0

>  <BSK_CASM3C_Proliferation_up>  (13) 
0.0

>  <BSK_CASM3C_SAA_down>  (13) 
0.0

>  <BSK_CASM3C_SAA_up>  (13) 
0.0

>  <BSK_CASM3C_SRB_down>  (13) 
0.0

>  <BSK_CASM3C_SRB_up>  (13) 
0.0

>  <BSK_CASM3C_Thrombomodulin_down>  (13) 
0.0

>  <BSK_CASM3C_Thrombomodulin_up>  (13) 
0.0

>  <BSK_CASM3C_TissueFactor_down>  (13) 
0.0

>  <BSK_CASM3C_TissueFactor_up>  (13) 
0.0

>  <BSK_CASM3C_VCAM1_down>  (13) 
0.0

>  <BSK_CASM3C_VCAM1_up>  (13) 
0.0

>  <BSK_CASM3C_uPAR_down>  (13) 
0.0

>  <BSK_CASM3C_uPAR_up>  (13) 
0.0

>  <BSK_KF3CT_ICAM1_down>  (13) 
0.0

>  <BSK_KF3CT_ICAM1_up>  (13) 
0.0

>  <BSK_KF3CT_IL1a_down>  (13) 
0.0

>  <BSK_KF3CT_IL1a_up>  (13) 
0.0

>  <BSK_KF3CT_IP10_down>  (13) 
0.0

>  <BSK_KF3CT_IP10_up>  (13) 
0.0

>  <BSK_KF3CT_MCP1_down>  (13) 
0.0

>  <BSK_KF3CT_MCP1_up>  (13) 
0.0

>  <BSK_KF3CT_MMP9_down>  (13) 
0.0

>  <BSK_KF3CT_MMP9_up>  (13) 
0.0

>  <BSK_KF3CT_SRB_down>  (13) 
0.0

>  <BSK_KF3CT_SRB_up>  (13) 
0.0

>  <BSK_KF3CT_TGFb1_down>  (13) 
0.0

>  <BSK_KF3CT_TGFb1_up>  (13) 
0.0

>  <BSK_KF3CT_TIMP2_down>  (13) 
0.0

>  <BSK_KF3CT_TIMP2_up>  (13) 
0.0

>  <BSK_KF3CT_uPA_down>  (13) 
0.0

>  <BSK_KF3CT_uPA_up>  (13) 
0.0

>  <BSK_LPS_CD40_down>  (13) 
0.0

>  <BSK_LPS_CD40_up>  (13) 
0.0

>  <BSK_LPS_Eselectin_down>  (13) 
0.0

>  <BSK_LPS_Eselectin_up>  (13) 
0.0

>  <BSK_LPS_IL1a_down>  (13) 
0.0

>  <BSK_LPS_IL1a_up>  (13) 
0.0

>  <BSK_LPS_IL8_down>  (13) 
0.0

>  <BSK_LPS_IL8_up>  (13) 
0.0

>  <BSK_LPS_MCP1_down>  (13) 
0.0

>  <BSK_LPS_MCP1_up>  (13) 
0.0

>  <BSK_LPS_MCSF_down>  (13) 
0.0

>  <BSK_LPS_MCSF_up>  (13) 
0.0

>  <BSK_LPS_PGE2_down>  (13) 
1.0

>  <BSK_LPS_PGE2_up>  (13) 
0.0

>  <BSK_LPS_SRB_down>  (13) 
0.0

>  <BSK_LPS_SRB_up>  (13) 
0.0

>  <BSK_LPS_TNFa_down>  (13) 
0.0

>  <BSK_LPS_TNFa_up>  (13) 
0.0

>  <BSK_LPS_TissueFactor_down>  (13) 
0.0

>  <BSK_LPS_TissueFactor_up>  (13) 
0.0

>  <BSK_LPS_VCAM1_down>  (13) 
1.0

>  <BSK_LPS_VCAM1_up>  (13) 
0.0

>  <BSK_SAg_CD38_down>  (13) 
0.0

>  <BSK_SAg_CD38_up>  (13) 
0.0

>  <BSK_SAg_CD40_down>  (13) 
1.0

>  <BSK_SAg_CD40_up>  (13) 
0.0

>  <BSK_SAg_CD69_down>  (13) 
0.0

>  <BSK_SAg_CD69_up>  (13) 
0.0

>  <BSK_SAg_Eselectin_down>  (13) 
0.0

>  <BSK_SAg_Eselectin_up>  (13) 
0.0

>  <BSK_SAg_IL8_down>  (13) 
0.0

>  <BSK_SAg_IL8_up>  (13) 
0.0

>  <BSK_SAg_MCP1_down>  (13) 
0.0

>  <BSK_SAg_MCP1_up>  (13) 
0.0

>  <BSK_SAg_MIG_down>  (13) 
0.0

>  <BSK_SAg_MIG_up>  (13) 
0.0

>  <BSK_SAg_PBMCCytotoxicity_down>  (13) 
0.0

>  <BSK_SAg_PBMCCytotoxicity_up>  (13) 
0.0

>  <BSK_SAg_Proliferation_down>  (13) 
1.0

>  <BSK_SAg_Proliferation_up>  (13) 
0.0

>  <BSK_SAg_SRB_down>  (13) 
0.0

>  <BSK_SAg_SRB_up>  (13) 
0.0

>  <BSK_hDFCGF_CollagenIII_down>  (13) 
1.0

>  <BSK_hDFCGF_CollagenIII_up>  (13) 
0.0

>  <BSK_hDFCGF_EGFR_down>  (13) 
0.0

>  <BSK_hDFCGF_EGFR_up>  (13) 
0.0

>  <BSK_hDFCGF_IL8_down>  (13) 
0.0

>  <BSK_hDFCGF_IL8_up>  (13) 
0.0

>  <BSK_hDFCGF_IP10_down>  (13) 
0.0

>  <BSK_hDFCGF_IP10_up>  (13) 
0.0

>  <BSK_hDFCGF_MCSF_down>  (13) 
0.0

>  <BSK_hDFCGF_MCSF_up>  (13) 
0.0

>  <BSK_hDFCGF_MIG_down>  (13) 
0.0

>  <BSK_hDFCGF_MIG_up>  (13) 
0.0

>  <BSK_hDFCGF_MMP1_down>  (13) 
0.0

>  <BSK_hDFCGF_MMP1_up>  (13) 
0.0

>  <BSK_hDFCGF_PAI1_down>  (13) 
0.0

>  <BSK_hDFCGF_PAI1_up>  (13) 
0.0

>  <BSK_hDFCGF_Proliferation_down>  (13) 
1.0

>  <BSK_hDFCGF_Proliferation_up>  (13) 
0.0

>  <BSK_hDFCGF_SRB_down>  (13) 
0.0

>  <BSK_hDFCGF_SRB_up>  (13) 
0.0

>  <BSK_hDFCGF_TIMP1_down>  (13) 
0.0

>  <BSK_hDFCGF_TIMP1_up>  (13) 
0.0

>  <BSK_hDFCGF_VCAM1_down>  (13) 
1.0

>  <BSK_hDFCGF_VCAM1_up>  (13) 
0.0

>  <CEETOX_H295R_11DCORT_dn>  (13) 
0.0

>  <CEETOX_H295R_11DCORT_up>  (13) 
0.0

>  <CEETOX_H295R_ANDR_dn>  (13) 
1.0

>  <CEETOX_H295R_ANDR_up>  (13) 
0.0

>  <CEETOX_H295R_CORTIC_dn>  (13) 
0.0

>  <CEETOX_H295R_CORTIC_up>  (13) 
0.0

>  <CEETOX_H295R_CORTISOL_dn>  (13) 
0.0

>  <CEETOX_H295R_CORTISOL_up>  (13) 
0.0

>  <CEETOX_H295R_DOC_dn>  (13) 
0.0

>  <CEETOX_H295R_DOC_up>  (13) 
0.0

>  <CEETOX_H295R_ESTRADIOL_dn>  (13) 
0.0

>  <CEETOX_H295R_ESTRADIOL_up>  (13) 
0.0

>  <CEETOX_H295R_ESTRONE_dn>  (13) 
0.0

>  <CEETOX_H295R_ESTRONE_up>  (13) 
0.0

>  <CEETOX_H295R_MTT_cell_viability_dn>  (13) 
0.0

>  <CEETOX_H295R_MTT_cell_viability_up>  (13) 
0.0

>  <CEETOX_H295R_OHPREG_dn>  (13) 
0.0

>  <CEETOX_H295R_OHPREG_up>  (13) 
0.0

>  <CEETOX_H295R_OHPROG_dn>  (13) 
0.0

>  <CEETOX_H295R_OHPROG_up>  (13) 
0.0

>  <CEETOX_H295R_PROG_dn>  (13) 
0.0

>  <CEETOX_H295R_PROG_up>  (13) 
0.0

>  <CEETOX_H295R_TESTO_dn>  (13) 
1.0

>  <CEETOX_H295R_TESTO_up>  (13) 
0.0

>  <CLD_ABCB11_24hr>  (13) 
0.0

>  <CLD_ABCB11_48hr>  (13) 
0.0

>  <CLD_ABCB11_6hr>  (13) 
0.0

>  <CLD_ABCB1_24hr>  (13) 
0.0

>  <CLD_ABCB1_48hr>  (13) 
0.0

>  <CLD_ABCB1_6hr>  (13) 
0.0

>  <CLD_ABCG2_24hr>  (13) 
0.0

>  <CLD_ABCG2_48hr>  (13) 
0.0

>  <CLD_ABCG2_6hr>  (13) 
0.0

>  <CLD_ACTIN_24hr>  (13) 
0.0

>  <CLD_ACTIN_48hr>  (13) 
0.0

>  <CLD_ACTIN_6hr>  (13) 
0.0

>  <CLD_CYP1A1_24hr>  (13) 
0.0

>  <CLD_CYP1A1_48hr>  (13) 
0.0

>  <CLD_CYP1A1_6hr>  (13) 
1.0

>  <CLD_CYP1A2_24hr>  (13) 
0.0

>  <CLD_CYP1A2_48hr>  (13) 
0.0

>  <CLD_CYP1A2_6hr>  (13) 
1.0

>  <CLD_CYP2B6_24hr>  (13) 
0.0

>  <CLD_CYP2B6_48hr>  (13) 
0.0

>  <CLD_CYP2B6_6hr>  (13) 
1.0

>  <CLD_CYP2C19_24hr>  (13) 
0.0

>  <CLD_CYP2C19_48hr>  (13) 
0.0

>  <CLD_CYP2C19_6hr>  (13) 
0.0

>  <CLD_CYP2C9_24hr>  (13) 
0.0

>  <CLD_CYP2C9_48hr>  (13) 
0.0

>  <CLD_CYP2C9_6hr>  (13) 
0.0

>  <CLD_CYP3A4_24hr>  (13) 
0.0

>  <CLD_CYP3A4_48hr>  (13) 
0.0

>  <CLD_CYP3A4_6hr>  (13) 
0.0

>  <CLD_GAPDH_24hr>  (13) 
0.0

>  <CLD_GAPDH_48hr>  (13) 
0.0

>  <CLD_GAPDH_6hr>  (13) 
0.0

>  <CLD_GSTA2_24hr>  (13) 
0.0

>  <CLD_GSTA2_48hr>  (13) 
0.0

>  <CLD_GSTA2_6hr>  (13) 
0.0

>  <CLD_HMGCS2_24hr>  (13) 
0.0

>  <CLD_HMGCS2_48hr>  (13) 
0.0

>  <CLD_HMGCS2_6hr>  (13) 
0.0

>  <CLD_SLCO1B1_24hr>  (13) 
0.0

>  <CLD_SLCO1B1_48hr>  (13) 
0.0

>  <CLD_SLCO1B1_6hr>  (13) 
0.0

>  <CLD_SULT2A_24hr>  (13) 
0.0

>  <CLD_SULT2A_48hr>  (13) 
0.0

>  <CLD_SULT2A_6hr>  (13) 
0.0

>  <CLD_UGT1A1_24hr>  (13) 
0.0

>  <CLD_UGT1A1_48hr>  (13) 
0.0

>  <CLD_UGT1A1_6hr>  (13) 
0.0

>  <NCCT_HEK293T_CellTiterGLO>  (13) 
1.0

>  <NCCT_QuantiLum_inhib_2_dn>  (13) 
1.0

>  <NCCT_QuantiLum_inhib_dn>  (13) 
1.0

>  <NCCT_TPO_AUR_dn>  (13) 
1.0

>  <NHEERL_MHC_CellCount_dn>  (13) 
0.0

>  <NHEERL_MHC_CellCount_up>  (13) 
0.0

>  <NHEERL_MHC_MHCvCellCount_dn>  (13) 
0.0

>  <NHEERL_MHC_MHCvCellCount_up>  (13) 
0.0

>  <NHEERL_ZF_144hpf_TERATOSCORE_up>  (13) 
1.0

>  <NIS_HEK293T_CTG_Cytotoxicity>  (13) 
1.0

>  <NIS_RAIU_inhibition>  (13) 
1.0

>  <NVS_ADME_hCYP19A1>  (13) 
0.0

>  <NVS_ADME_hCYP19A1_Activator>  (13) 
0.0

>  <NVS_ADME_hCYP1A1>  (13) 
1.0

>  <NVS_ADME_hCYP1A1_Activator>  (13) 
0.0

>  <NVS_ADME_hCYP2B6>  (13) 
1.0

>  <NVS_ADME_hCYP2B6_Activator>  (13) 
0.0

>  <NVS_ADME_hCYP2C18>  (13) 
1.0

>  <NVS_ADME_hCYP2C18_Activator>  (13) 
0.0

>  <NVS_ADME_hCYP2C19>  (13) 
0.0

>  <NVS_ADME_hCYP2C19_Activator>  (13) 
1.0

>  <NVS_ADME_hCYP2C9>  (13) 
1.0

>  <NVS_ADME_hCYP2C9_Activator>  (13) 
0.0

>  <NVS_ADME_hCYP2J2>  (13) 
1.0

>  <NVS_ADME_hCYP2J2_Activator>  (13) 
0.0

>  <NVS_ADME_hCYP4F12>  (13) 
1.0

>  <NVS_ADME_hCYP4F12_Activator>  (13) 
0.0

>  <NVS_ADME_rCYP2A1>  (13) 
1.0

>  <NVS_ADME_rCYP2A1_Activator>  (13) 
0.0

>  <NVS_ADME_rCYP2A2>  (13) 
1.0

>  <NVS_ADME_rCYP2A2_Activator>  (13) 
0.0

>  <NVS_ADME_rCYP2C11>  (13) 
1.0

>  <NVS_ADME_rCYP2C11_Activator>  (13) 
0.0

>  <NVS_ADME_rCYP2C12>  (13) 
1.0

>  <NVS_ADME_rCYP2C12_Activator>  (13) 
0.0

>  <NVS_ADME_rCYP2C13>  (13) 
1.0

>  <NVS_ADME_rCYP2C13_Activator>  (13) 
0.0

>  <NVS_ADME_rCYP2D1>  (13) 
1.0

>  <NVS_ADME_rCYP2D1_Activator>  (13) 
0.0

>  <NVS_ADME_rCYP3A1>  (13) 
1.0

>  <NVS_ADME_rCYP3A1_Activator>  (13) 
0.0

>  <NVS_ADME_rCYP3A2>  (13) 
1.0

>  <NVS_ADME_rCYP3A2_Activator>  (13) 
0.0

>  <NVS_ENZ_hCASP8>  (13) 
0.0

>  <NVS_ENZ_hCASP8_Activator>  (13) 
0.0

>  <NVS_ENZ_hCK1D>  (13) 
1.0

>  <NVS_ENZ_hCK1D_Activator>  (13) 
0.0

>  <NVS_ENZ_hEGFR>  (13) 
0.0

>  <NVS_ENZ_hEGFR_Activator>  (13) 
0.0

>  <NVS_ENZ_hES>  (13) 
0.0

>  <NVS_ENZ_hES_Activator>  (13) 
0.0

>  <NVS_ENZ_hEphA2>  (13) 
0.0

>  <NVS_ENZ_hEphA2_Activator>  (13) 
0.0

>  <NVS_ENZ_hEphB2>  (13) 
0.0

>  <NVS_ENZ_hEphB2_Activator>  (13) 
0.0

>  <NVS_ENZ_hFGFR1>  (13) 
0.0

>  <NVS_ENZ_hFGFR1_Activator>  (13) 
0.0

>  <NVS_ENZ_hIKKa>  (13) 
0.0

>  <NVS_ENZ_hIKKa_Activator>  (13) 
0.0

>  <NVS_ENZ_hJNK2>  (13) 
0.0

>  <NVS_ENZ_hJNK2_Activator>  (13) 
0.0

>  <NVS_ENZ_hJak2>  (13) 
0.0

>  <NVS_ENZ_hJak2_Activator>  (13) 
0.0

>  <NVS_ENZ_hMAPK1>  (13) 
0.0

>  <NVS_ENZ_hMAPK11>  (13) 
0.0

>  <NVS_ENZ_hMAPK11_Activator>  (13) 
0.0

>  <NVS_ENZ_hMAPK1_Activator>  (13) 
0.0

>  <NVS_ENZ_hMAPK3>  (13) 
0.0

>  <NVS_ENZ_hMAPK3_Activator>  (13) 
0.0

>  <NVS_ENZ_hMMP1>  (13) 
0.0

>  <NVS_ENZ_hMMP13>  (13) 
1.0

>  <NVS_ENZ_hMMP13_Activator>  (13) 
0.0

>  <NVS_ENZ_hMMP1_Activator>  (13) 
0.0

>  <NVS_ENZ_hMMP3>  (13) 
1.0

>  <NVS_ENZ_hMMP3_Activator>  (13) 
0.0

>  <NVS_ENZ_hMMP7>  (13) 
0.0

>  <NVS_ENZ_hMMP7_Activator>  (13) 
0.0

>  <NVS_ENZ_hNEK2>  (13) 
0.0

>  <NVS_ENZ_hNEK2_Activator>  (13) 
0.0

>  <NVS_ENZ_hPAK2>  (13) 
0.0

>  <NVS_ENZ_hPAK2_Activator>  (13) 
0.0

>  <NVS_ENZ_hPAK4>  (13) 
0.0

>  <NVS_ENZ_hPAK4_Activator>  (13) 
0.0

>  <NVS_ENZ_hPI3Ka>  (13) 
1.0

>  <NVS_ENZ_hPI3Ka_Activator>  (13) 
0.0

>  <NVS_ENZ_hPPM1A>  (13) 
0.0

>  <NVS_ENZ_hPPM1A_Activator>  (13) 
0.0

>  <NVS_ENZ_hPPP1CA>  (13) 
0.0

>  <NVS_ENZ_hPPP1CA_Activator>  (13) 
0.0

>  <NVS_ENZ_hPPP2CA>  (13) 
0.0

>  <NVS_ENZ_hPPP2CA_Activator>  (13) 
0.0

>  <NVS_ENZ_hPTEN>  (13) 
0.0

>  <NVS_ENZ_hPTEN_Activator>  (13) 
0.0

>  <NVS_ENZ_hPTPRB>  (13) 
0.0

>  <NVS_ENZ_hPTPRB_Activator>  (13) 
0.0

>  <NVS_ENZ_hPTPRC>  (13) 
0.0

>  <NVS_ENZ_hPTPRC_Activator>  (13) 
0.0

>  <NVS_ENZ_hROCK1>  (13) 
0.0

>  <NVS_ENZ_hROCK1_Activator>  (13) 
0.0

>  <NVS_ENZ_hSIRT1>  (13) 
0.0

>  <NVS_ENZ_hSIRT1_Activator>  (13) 
0.0

>  <NVS_ENZ_hTie2>  (13) 
0.0

>  <NVS_ENZ_hTie2_Activator>  (13) 
0.0

>  <NVS_ENZ_hTrkA>  (13) 
1.0

>  <NVS_ENZ_hTrkA_Activator>  (13) 
0.0

>  <NVS_ENZ_hVEGFR1>  (13) 
0.0

>  <NVS_ENZ_hVEGFR1_Activator>  (13) 
0.0

>  <NVS_ENZ_hVEGFR2>  (13) 
0.0

>  <NVS_ENZ_hVEGFR2_Activator>  (13) 
0.0

>  <NVS_ENZ_hVEGFR3>  (13) 
0.0

>  <NVS_ENZ_hVEGFR3_Activator>  (13) 
0.0

>  <NVS_ENZ_oCOX1>  (13) 
0.0

>  <NVS_ENZ_oCOX1_Activator>  (13) 
0.0

>  <NVS_ENZ_oCOX2>  (13) 
0.0

>  <NVS_ENZ_oCOX2_Activator>  (13) 
0.0

>  <NVS_ENZ_rMAOAP>  (13) 
0.0

>  <NVS_ENZ_rMAOAP_Activator>  (13) 
0.0

>  <NVS_GPCR_g5HT4>  (13) 
1.0

>  <NVS_GPCR_gLTB4>  (13) 
1.0

>  <NVS_GPCR_gOpiateK>  (13) 
1.0

>  <NVS_GPCR_h5HT6>  (13) 
1.0

>  <NVS_GPCR_h5HT7>  (13) 
1.0

>  <NVS_GPCR_hAT1>  (13) 
0.0

>  <NVS_GPCR_hAdoRA1>  (13) 
1.0

>  <NVS_GPCR_hAdra2C>  (13) 
0.0

>  <NVS_GPCR_hAdrb1>  (13) 
1.0

>  <NVS_GPCR_hAdrb2>  (13) 
0.0

>  <NVS_GPCR_hAdrb3>  (13) 
0.0

>  <NVS_GPCR_hDRD1>  (13) 
1.0

>  <NVS_GPCR_hLTB4_BLT1>  (13) 
1.0

>  <NVS_GPCR_hNPY2>  (13) 
0.0

>  <NVS_GPCR_hOpiate_D1>  (13) 
1.0

>  <NVS_GPCR_hOpiate_mu>  (13) 
1.0

>  <NVS_GPCR_hTXA2>  (13) 
1.0

>  <NVS_GPCR_mCKKBCentral>  (13) 
1.0

>  <NVS_GPCR_p5HT2C>  (13) 
1.0

>  <NVS_GPCR_rAdra2_NonSelective>  (13) 
0.0

>  <NVS_GPCR_rOXT>  (13) 
1.0

>  <NVS_GPCR_rOpiate_NonSelective>  (13) 
1.0

>  <NVS_GPCR_rOpiate_NonSelectiveNa>  (13) 
1.0

>  <NVS_GPCR_rVIP_NonSelective>  (13) 
0.0

>  <NVS_GPCR_rmAdra2B>  (13) 
1.0

>  <NVS_GPCR_rmMGluR1>  (13) 
0.0

>  <NVS_IC_rCaBTZCHL>  (13) 
0.0

>  <NVS_IC_rCaDHPRCh_L>  (13) 
0.0

>  <NVS_IC_rNaCh_site2>  (13) 
1.0

>  <NVS_LGIC_bGABAR_Agonist>  (13) 
0.0

>  <NVS_LGIC_bGABARa1>  (13) 
0.0

>  <NVS_LGIC_h5HT3>  (13) 
0.0

>  <NVS_LGIC_rAMPA>  (13) 
0.0

>  <NVS_LGIC_rGluNMDA_Agonist>  (13) 
1.0

>  <NVS_LGIC_rNNR_BungSens>  (13) 
0.0

>  <NVS_MP_hPBR>  (13) 
0.0

>  <NVS_MP_rPBR>  (13) 
1.0

>  <NVS_NR_bPR>  (13) 
1.0

>  <NVS_NR_hCAR_Antagonist>  (13) 
1.0

>  <NVS_NR_hFXR_Agonist>  (13) 
0.0

>  <NVS_NR_hFXR_Antagonist>  (13) 
1.0

>  <NVS_NR_hPPARa>  (13) 
1.0

>  <NVS_NR_hPPARg>  (13) 
0.0

>  <NVS_NR_hPXR>  (13) 
1.0

>  <NVS_NR_hRAR_Antagonist>  (13) 
0.0

>  <NVS_NR_hTRa_Antagonist>  (13) 
0.0

>  <NVS_NR_rMR>  (13) 
0.0

>  <NVS_OR_gSIGMA_NonSelective>  (13) 
0.0

>  <NVS_TR_gDAT>  (13) 
1.0

>  <NVS_TR_hDAT>  (13) 
1.0

>  <NVS_TR_hNET>  (13) 
1.0

>  <NVS_TR_rNET>  (13) 
0.0

>  <NVS_TR_rVMAT2>  (13) 
1.0

>  <OT_AR_ARSRC1_0480>  (13) 
0.0

>  <OT_AR_ARSRC1_0960>  (13) 
1.0

>  <OT_ER_ERaERa_0480>  (13) 
1.0

>  <OT_ER_ERaERa_1440>  (13) 
1.0

>  <OT_ER_ERaERb_0480>  (13) 
1.0

>  <OT_ER_ERbERb_0480>  (13) 
1.0

>  <OT_ER_ERbERb_1440>  (13) 
1.0

>  <OT_ERa_EREGFP_0480>  (13) 
1.0

>  <TOX21_AP1_BLA_Agonist_ch1>  (13) 
0.0

>  <TOX21_AP1_BLA_Agonist_ch2>  (13) 
0.0

>  <TOX21_AP1_BLA_Agonist_ratio>  (13) 
0.0

>  <TOX21_AP1_BLA_Agonist_viability>  (13) 
0.0

>  <TOX21_ARE_BLA_Agonist_ch1>  (13) 
0.0

>  <TOX21_ARE_BLA_Agonist_ch2>  (13) 
1.0

>  <TOX21_ARE_BLA_agonist_viability>  (13) 
0.0

>  <TOX21_AR_BLA_Agonist_ch1>  (13) 
0.0

>  <TOX21_AR_BLA_Agonist_ch2>  (13) 
0.0

>  <TOX21_AR_BLA_Agonist_ratio>  (13) 
0.0

>  <TOX21_AR_BLA_Antagonist_ch1>  (13) 
1.0

>  <TOX21_AR_BLA_Antagonist_ch2>  (13) 
1.0

>  <TOX21_AR_BLA_Antagonist_ratio>  (13) 
1.0

>  <TOX21_AR_BLA_Antagonist_viability>  (13) 
0.0

>  <TOX21_AR_LUC_MDAKB2_Agonist>  (13) 
0.0

>  <TOX21_AR_LUC_MDAKB2_Agonist_3uM_Nilutamide>  (13) 
0.0

>  <TOX21_AR_LUC_MDAKB2_Agonist_3uM_Nilutamide_viability>  (13) 
0.0

>  <TOX21_AR_LUC_MDAKB2_Antagonist_0.5nM_R1881>  (13) 
1.0

>  <TOX21_AR_LUC_MDAKB2_Antagonist_0.5nM_R1881_viability>  (13) 
0.0

>  <TOX21_AR_LUC_MDAKB2_Antagonist_10nM_R1881>  (13) 
1.0

>  <TOX21_AR_LUC_MDAKB2_Antagonist_10nM_R1881_viability>  (13) 
0.0

>  <TOX21_AhR_LUC_Agonist>  (13) 
0.0

>  <TOX21_Aromatase_Inhibition>  (13) 
0.0

>  <TOX21_Aromatase_Inhibition_viability>  (13) 
0.0

>  <TOX21_AutoFluor_HEK293_Cell_blue>  (13) 
0.0

>  <TOX21_AutoFluor_HEK293_Cell_green>  (13) 
0.0

>  <TOX21_AutoFluor_HEK293_Cell_red>  (13) 
0.0

>  <TOX21_AutoFluor_HEK293_Media_blue>  (13) 
0.0

>  <TOX21_AutoFluor_HEK293_Media_green>  (13) 
0.0

>  <TOX21_AutoFluor_HEK293_Media_red>  (13) 
0.0

>  <TOX21_AutoFluor_HEPG2_Cell_blue>  (13) 
0.0

>  <TOX21_AutoFluor_HEPG2_Cell_green>  (13) 
0.0

>  <TOX21_AutoFluor_HEPG2_Cell_red>  (13) 
0.0

>  <TOX21_AutoFluor_HEPG2_Media_blue>  (13) 
0.0

>  <TOX21_AutoFluor_HEPG2_Media_green>  (13) 
0.0

>  <TOX21_AutoFluor_HEPG2_Media_red>  (13) 
0.0

>  <TOX21_CAR_Agonist>  (13) 
1.0

>  <TOX21_CAR_Antagonist>  (13) 
0.0

>  <TOX21_CAR_Antagonist_viability>  (13) 
0.0

>  <TOX21_CASP3_CHO>  (13) 
0.0

>  <TOX21_CASP3_CHO_viability>  (13) 
1.0

>  <TOX21_CASP3_HEPG2>  (13) 
0.0

>  <TOX21_CASP3_HEPG2_viability>  (13) 
0.0

>  <TOX21_DT40>  (13) 
1.0

>  <TOX21_DT40_100>  (13) 
1.0

>  <TOX21_DT40_657>  (13) 
1.0

>  <TOX21_ELG1_LUC_Agonist>  (13) 
0.0

>  <TOX21_ELG1_LUC_Agonist_viability>  (13) 
0.0

>  <TOX21_ERR_Agonist>  (13) 
0.0

>  <TOX21_ERR_Antagonist>  (13) 
1.0

>  <TOX21_ERa_BLA_Agonist_ch1>  (13) 
0.0

>  <TOX21_ERa_BLA_Agonist_ch2>  (13) 
1.0

>  <TOX21_ERa_BLA_Agonist_ratio>  (13) 
1.0

>  <TOX21_ERa_BLA_Antagonist_ch1>  (13) 
1.0

>  <TOX21_ERa_BLA_Antagonist_ch2>  (13) 
1.0

>  <TOX21_ERa_BLA_Antagonist_ratio>  (13) 
1.0

>  <TOX21_ERa_BLA_Antagonist_viability>  (13) 
0.0

>  <TOX21_ERa_LUC_VM7_Agonist>  (13) 
1.0

>  <TOX21_ERa_LUC_VM7_Agonist_10nM_ICI182780>  (13) 
1.0

>  <TOX21_ERa_LUC_VM7_Agonist_10nM_ICI182780_viability>  (13) 
0.0

>  <TOX21_ERa_LUC_VM7_Antagonist_0.1nM_E2>  (13) 
1.0

>  <TOX21_ERa_LUC_VM7_Antagonist_0.1nM_E2_viability>  (13) 
0.0

>  <TOX21_ERa_LUC_VM7_Antagonist_0.5nM_E2>  (13) 
0.0

>  <TOX21_ERa_LUC_VM7_Antagonist_0.5nM_E2_viability>  (13) 
0.0

>  <TOX21_ERb_BLA_Agonist_ch1>  (13) 
0.0

>  <TOX21_ERb_BLA_Agonist_ch2>  (13) 
0.0

>  <TOX21_ERb_BLA_Agonist_ratio>  (13) 
0.0

>  <TOX21_ERb_BLA_Agonist_viability>  (13) 
0.0

>  <TOX21_ERb_BLA_Antagonist_ch1>  (13) 
0.0

>  <TOX21_ERb_BLA_Antagonist_ch2>  (13) 
1.0

>  <TOX21_ERb_BLA_Antagonist_ratio>  (13) 
1.0

>  <TOX21_ERb_BLA_Antagonist_viability>  (13) 
0.0

>  <TOX21_ESRE_BLA_ch1>  (13) 
0.0

>  <TOX21_ESRE_BLA_ch2>  (13) 
0.0

>  <TOX21_ESRE_BLA_ratio>  (13) 
0.0

>  <TOX21_ESRE_BLA_viability>  (13) 
0.0

>  <TOX21_FXR_BLA_Antagonist_ch1>  (13) 
0.0

>  <TOX21_FXR_BLA_Antagonist_ch2>  (13) 
0.0

>  <TOX21_FXR_BLA_agonist_ch1>  (13) 
0.0

>  <TOX21_FXR_BLA_agonist_ch2>  (13) 
0.0

>  <TOX21_FXR_BLA_agonist_ratio>  (13) 
0.0

>  <TOX21_FXR_BLA_agonist_viability>  (13) 
0.0

>  <TOX21_FXR_BLA_antagonist_ratio>  (13) 
1.0

>  <TOX21_FXR_BLA_antagonist_viability>  (13) 
0.0

>  <TOX21_GR_BLA_Agonist_ch1>  (13) 
0.0

>  <TOX21_GR_BLA_Agonist_ch2>  (13) 
0.0

>  <TOX21_GR_BLA_Agonist_ratio>  (13) 
0.0

>  <TOX21_GR_BLA_Antagonist_ch1>  (13) 
0.0

>  <TOX21_GR_BLA_Antagonist_ch2>  (13) 
1.0

>  <TOX21_GR_BLA_Antagonist_ratio>  (13) 
1.0

>  <TOX21_GR_BLA_Antagonist_viability>  (13) 
0.0

>  <TOX21_H2AX_HTRF_CHO_Agonist_ch1>  (13) 
0.0

>  <TOX21_H2AX_HTRF_CHO_Agonist_ch2>  (13) 
0.0

>  <TOX21_H2AX_HTRF_CHO_Agonist_ratio>  (13) 
0.0

>  <TOX21_H2AX_HTRF_CHO_viability>  (13) 
0.0

>  <TOX21_HDAC_Inhibition>  (13) 
0.0

>  <TOX21_HDAC_Inhibition_viability>  (13) 
0.0

>  <TOX21_HRE_BLA_Agonist_ch1>  (13) 
0.0

>  <TOX21_HRE_BLA_Agonist_ch2>  (13) 
0.0

>  <TOX21_HRE_BLA_Agonist_ratio>  (13) 
0.0

>  <TOX21_HRE_BLA_Agonist_viability>  (13) 
0.0

>  <TOX21_HSE_BLA_agonist_ch1>  (13) 
0.0

>  <TOX21_HSE_BLA_agonist_ch2>  (13) 
0.0

>  <TOX21_HSE_BLA_agonist_ratio>  (13) 
0.0

>  <TOX21_HSE_BLA_agonist_viability>  (13) 
0.0

>  <TOX21_LUC_Biochem>  (13) 
0.0

>  <TOX21_MMP_fitc>  (13) 
1.0

>  <TOX21_MMP_ratio_down>  (13) 
1.0

>  <TOX21_MMP_ratio_up>  (13) 
0.0

>  <TOX21_MMP_rhodamine>  (13) 
1.0

>  <TOX21_MMP_viability>  (13) 
0.0

>  <TOX21_NFkB_BLA_agonist_ch1>  (13) 
0.0

>  <TOX21_NFkB_BLA_agonist_ch2>  (13) 
0.0

>  <TOX21_NFkB_BLA_agonist_ratio>  (13) 
0.0

>  <TOX21_NFkB_BLA_agonist_viability>  (13) 
0.0

>  <TOX21_PGC_ERR_Agonist>  (13) 
0.0

>  <TOX21_PGC_ERR_Antagonist>  (13) 
1.0

>  <TOX21_PGC_ERR_viability>  (13) 
1.0

>  <TOX21_PPARd_BLA_Agonist_viability>  (13) 
0.0

>  <TOX21_PPARd_BLA_Antagonist_ch1>  (13) 
0.0

>  <TOX21_PPARd_BLA_Antagonist_ch2>  (13) 
1.0

>  <TOX21_PPARd_BLA_agonist_ch1>  (13) 
0.0

>  <TOX21_PPARd_BLA_agonist_ch2>  (13) 
0.0

>  <TOX21_PPARd_BLA_agonist_ratio>  (13) 
0.0

>  <TOX21_PPARd_BLA_antagonist_ratio>  (13) 
1.0

>  <TOX21_PPARd_BLA_antagonist_viability>  (13) 
0.0

>  <TOX21_PPARg_BLA_Agonist_ch1>  (13) 
0.0

>  <TOX21_PPARg_BLA_Agonist_ch2>  (13) 
0.0

>  <TOX21_PPARg_BLA_Agonist_ratio>  (13) 
0.0

>  <TOX21_PPARg_BLA_Antagonist_ch1>  (13) 
0.0

>  <TOX21_PPARg_BLA_Antagonist_ch2>  (13) 
1.0

>  <TOX21_PPARg_BLA_antagonist_ratio>  (13) 
1.0

>  <TOX21_PPARg_BLA_antagonist_viability>  (13) 
0.0

>  <TOX21_PR_BLA_Agonist_ch1>  (13) 
0.0

>  <TOX21_PR_BLA_Agonist_ch2>  (13) 
0.0

>  <TOX21_PR_BLA_Agonist_ratio>  (13) 
0.0

>  <TOX21_PR_BLA_Antagonist_ch1>  (13) 
0.0

>  <TOX21_PR_BLA_Antagonist_ch2>  (13) 
1.0

>  <TOX21_PR_BLA_Antagonist_ratio>  (13) 
1.0

>  <TOX21_PR_BLA_Antagonist_viability>  (13) 
0.0

>  <TOX21_PR_BLA_Followup_Agonist_ch1>  (13) 
0.0

>  <TOX21_PR_BLA_Followup_Agonist_ch2>  (13) 
0.0

>  <TOX21_PR_BLA_Followup_Agonist_ratio>  (13) 
0.0

>  <TOX21_PR_BLA_Followup_Agonist_viability>  (13) 
0.0

>  <TOX21_PR_BLA_Followup_Antagonist_ch1>  (13) 
1.0

>  <TOX21_PR_BLA_Followup_Antagonist_ch2>  (13) 
0.0

>  <TOX21_PR_BLA_Followup_Antagonist_ratio>  (13) 
1.0

>  <TOX21_PR_BLA_Followup_Antagonist_viability>  (13) 
0.0

>  <TOX21_PR_LUC_Followup_Agonist>  (13) 
0.0

>  <TOX21_PR_LUC_Followup_Agonist_viability>  (13) 
0.0

>  <TOX21_PR_LUC_Followup_Antagonist>  (13) 
1.0

>  <TOX21_PR_LUC_Followup_Antagonist_viability>  (13) 
0.0

>  <TOX21_PXR_Agonist>  (13) 
0.0

>  <TOX21_PXR_viability>  (13) 
1.0

>  <TOX21_RAR_LUC_Agonist>  (13) 
0.0

>  <TOX21_RAR_LUC_Agonist_viability>  (13) 
0.0

>  <TOX21_RAR_LUC_Antagonist_viability>  (13) 
0.0

>  <TOX21_RORg_LUC_CHO_Antagonist>  (13) 
1.0

>  <TOX21_RORg_LUC_CHO_Antagonist_viability>  (13) 
0.0

>  <TOX21_RT_HEK293_FLO_00hr_viability>  (13) 
0.0

>  <TOX21_RT_HEK293_FLO_08hr_viability>  (13) 
0.0

>  <TOX21_RT_HEK293_FLO_16hr_viability>  (13) 
0.0

>  <TOX21_RT_HEK293_FLO_24hr_viability>  (13) 
0.0

>  <TOX21_RT_HEK293_FLO_32hr_viability>  (13) 
0.0

>  <TOX21_RT_HEK293_FLO_40hr_viability>  (13) 
0.0

>  <TOX21_RT_HEK293_GLO_00hr_viability>  (13) 
0.0

>  <TOX21_RT_HEK293_GLO_08hr_viability>  (13) 
0.0

>  <TOX21_RT_HEK293_GLO_16hr_viability>  (13) 
1.0

>  <TOX21_RT_HEK293_GLO_24hr_viability>  (13) 
1.0

>  <TOX21_RT_HEK293_GLO_32hr_viability>  (13) 
1.0

>  <TOX21_RT_HEK293_GLO_40hr_viability>  (13) 
1.0

>  <TOX21_RT_HEPG2_FLO_00hr_ctrl_viability>  (13) 
0.0

>  <TOX21_RT_HEPG2_FLO_08hr_viability>  (13) 
0.0

>  <TOX21_RT_HEPG2_FLO_16hr_ctrl_viability>  (13) 
0.0

>  <TOX21_RT_HEPG2_FLO_24hr_viability>  (13) 
0.0

>  <TOX21_RT_HEPG2_FLO_32hr_ctrl_viability>  (13) 
0.0

>  <TOX21_RT_HEPG2_GLO_00hr_ctrl_viability>  (13) 
0.0

>  <TOX21_RT_HEPG2_GLO_08hr_ctrl_viability>  (13) 
0.0

>  <TOX21_RT_HEPG2_GLO_16hr_ctrl_viability>  (13) 
0.0

>  <TOX21_RT_HEPG2_GLO_24hr_ctrl_viability>  (13) 
0.0

>  <TOX21_RT_HEPG2_GLO_32hr_ctrl_viability>  (13) 
0.0

>  <TOX21_RT_HEPG2_GLO_40hr_viability>  (13) 
0.0

>  <TOX21_RXR_BLA_Agonist_ch1>  (13) 
0.0

>  <TOX21_RXR_BLA_Agonist_ch2>  (13) 
0.0

>  <TOX21_RXR_BLA_Agonist_ratio>  (13) 
0.0

>  <TOX21_RXR_BLA_Agonist_viability>  (13) 
0.0

>  <TOX21_SBE_BLA_Agonist_ch1>  (13) 
0.0

>  <TOX21_SBE_BLA_Agonist_ch2>  (13) 
0.0

>  <TOX21_SBE_BLA_Agonist_ratio>  (13) 
0.0

>  <TOX21_SBE_BLA_Agonist_viability>  (13) 
0.0

>  <TOX21_SBE_BLA_Antagonist_ch1>  (13) 
0.0

>  <TOX21_SBE_BLA_Antagonist_ch2>  (13) 
1.0

>  <TOX21_SBE_BLA_Antagonist_ratio>  (13) 
1.0

>  <TOX21_SBE_BLA_Antagonist_viability>  (13) 
0.0

>  <TOX21_SSH_3T3_GLI3_Agonist>  (13) 
0.0

>  <TOX21_SSH_3T3_GLI3_Agonist_viability>  (13) 
0.0

>  <TOX21_SSH_3T3_GLI3_Antagonist>  (13) 
1.0

>  <TOX21_SSH_3T3_GLI3_Antagonist_viability>  (13) 
1.0

>  <TOX21_TRHR_HEK293_Agonist>  (13) 
0.0

>  <TOX21_TRHR_HEK293_Antagonist>  (13) 
0.0

>  <TOX21_TR_LUC_GH3_Agonist>  (13) 
0.0

>  <TOX21_TR_LUC_GH3_Antagonist>  (13) 
1.0

>  <TOX21_TR_LUC_GH3_Antagonist_viability>  (13) 
0.0

>  <TOX21_TSHR_Agonist_ch2>  (13) 
0.0

>  <TOX21_TSHR_Antagonist_ch2>  (13) 
0.0

>  <TOX21_TSHR_Antagonist_ratio>  (13) 
0.0

>  <TOX21_TSHR_HTRF_Agonist_ch1>  (13) 
0.0

>  <TOX21_TSHR_HTRF_Antagonist_ch1>  (13) 
0.0

>  <TOX21_TSHR_wt_HTRF_ch1>  (13) 
0.0

>  <TOX21_TSHR_wt_ch2>  (13) 
0.0

>  <TOX21_TSHR_wt_ratio>  (13) 
0.0

>  <TOX21_VDR_BLA_Agonist_viability>  (13) 
0.0

>  <TOX21_VDR_BLA_Antagonist_ch1>  (13) 
0.0

>  <TOX21_VDR_BLA_Antagonist_ch2>  (13) 
0.0

>  <TOX21_VDR_BLA_agonist_ch1>  (13) 
0.0

>  <TOX21_VDR_BLA_agonist_ch2>  (13) 
0.0

>  <TOX21_VDR_BLA_agonist_ratio>  (13) 
0.0

>  <TOX21_VDR_BLA_antagonist_ratio>  (13) 
0.0

>  <TOX21_VDR_BLA_antagonist_viability>  (13) 
0.0

>  <TOX21_p53_BLA_p1_ch1>  (13) 
0.0

>  <TOX21_p53_BLA_p1_ch2>  (13) 
0.0

>  <TOX21_p53_BLA_p1_ratio>  (13) 
0.0

>  <TOX21_p53_BLA_p1_viability>  (13) 
0.0

>  <TOX21_p53_BLA_p2_ch1>  (13) 
1.0

>  <TOX21_p53_BLA_p2_ch2>  (13) 
0.0

>  <TOX21_p53_BLA_p2_ratio>  (13) 
1.0

>  <TOX21_p53_BLA_p2_viability>  (13) 
0.0

>  <TOX21_p53_BLA_p3_ch1>  (13) 
0.0

>  <TOX21_p53_BLA_p3_ch2>  (13) 
0.0

>  <TOX21_p53_BLA_p3_ratio>  (13) 
0.0

>  <TOX21_p53_BLA_p4_ch1>  (13) 
1.0

>  <TOX21_p53_BLA_p4_ch2>  (13) 
0.0

>  <TOX21_p53_BLA_p4_ratio>  (13) 
1.0

>  <TOX21_p53_BLA_p4_viability>  (13) 
1.0

>  <TOX21_p53_BLA_p5_ch1>  (13) 
1.0

>  <TOX21_p53_BLA_p5_ch2>  (13) 
0.0

>  <TOX21_p53_BLA_p5_ratio>  (13) 
0.0

>  <TOX21_p53_BLA_p5_viability>  (13) 
0.0

>  <Tanguay_ZF_120hpf_AXIS_up>  (13) 
1.0

>  <Tanguay_ZF_120hpf_ActivityScore>  (13) 
1.0

>  <Tanguay_ZF_120hpf_BRAI_up>  (13) 
1.0

>  <Tanguay_ZF_120hpf_CFIN_up>  (13) 
1.0

>  <Tanguay_ZF_120hpf_CIRC_up>  (13) 
0.0

>  <Tanguay_ZF_120hpf_EYE_up>  (13) 
1.0

>  <Tanguay_ZF_120hpf_JAW_up>  (13) 
1.0

>  <Tanguay_ZF_120hpf_MORT_up>  (13) 
1.0

>  <Tanguay_ZF_120hpf_NC_up>  (13) 
0.0

>  <Tanguay_ZF_120hpf_OTIC_up>  (13) 
1.0

>  <Tanguay_ZF_120hpf_PE_up>  (13) 
1.0

>  <Tanguay_ZF_120hpf_PFIN_up>  (13) 
1.0

>  <Tanguay_ZF_120hpf_PIG_up>  (13) 
1.0

>  <Tanguay_ZF_120hpf_SNOU_up>  (13) 
1.0

>  <Tanguay_ZF_120hpf_SOMI_up>  (13) 
1.0

>  <Tanguay_ZF_120hpf_SWIM_up>  (13) 
0.0

>  <Tanguay_ZF_120hpf_TRUN_up>  (13) 
1.0

>  <Tanguay_ZF_120hpf_TR_up>  (13) 
1.0

>  <Tanguay_ZF_120hpf_YSE_up>  (13) 
1.0

>  <UPITT_HCI_U2OS_AR_TIF2_Nucleoli_Agonist>  (13) 
1.0

>  <UPITT_HCI_U2OS_AR_TIF2_Nucleoli_Antagonist>  (13) 
1.0

>  <UPITT_HCI_U2OS_AR_TIF2_Nucleoli_Cytoplasm_Ratio_Agonist>  (13) 
1.0

>  <UPITT_HCI_U2OS_AR_TIF2_Nucleoli_Cytoplasm_Ratio_Antagonist>  (13) 
1.0

>  <NVS_NR_mERa>  (13) 
1.0

$$$$

     RDKit          3D

 19 19  0  0  0  0  0  0  0  0999 V2000
    0.0000    0.0000    0.0000 C   0  0  0  0  0  0  0  0  0  0  0  0
    0.0000    0.0000    0.0000 C   0  0  0  0  0  0  0  0  0  0  0  0
    0.0000    0.0000    0.0000 C   0  0  0  0  0  0  0  0  0  0  0  0
    0.0000    0.0000    0.0000 C   0  0  0  0  0  0  0  0  0  0  0  0
    0.0000    0.0000    0.0000 C   0  0  0  0  0  0  0  0  0  0  0  0
    0.0000    0.0000    0.0000 C   0  0  0  0  0  0  0  0  0  0  0  0
    0.0000    0.0000    0.0000 C   0  0  0  0  0  0  0  0  0  0  0  0
    0.0000    0.0000    0.0000 C   0  0  0  0  0  0  0  0  0  0  0  0
    0.0000    0.0000    0.0000 C   0  0  0  0  0  0  0  0  0  0  0  0
    0.0000    0.0000    0.0000 C   0  0  0  0  0  0  0  0  0  0  0  0
    0.0000    0.0000    0.0000 C   0  0  0  0  0  0  0  0  0  0  0  0
    0.0000    0.0000    0.0000 C   0  0  0  0  0  0  0  0  0  0  0  0
    0.0000    0.0000    0.0000 C   0  0  0  0  0  0  0  0  0  0  0  0
    0.0000    0.0000    0.0000 C   0  0  0  0  0  0  0  0  0  0  0  0
    0.0000    0.0000    0.0000 C   0  0  0  0  0  0  0  0  0  0  0  0
    0.0000    0.0000    0.0000 C   0  0  0  0  0  0  0  0  0  0  0  0
    0.0000    0.0000    0.0000 C   0  0  0  0  0  0  0  0  0  0  0  0
    0.0000    0.0000    0.0000 C   0  0  0  0  0  0  0  0  0  0  0  0
    0.0000    0.0000    0.0000 O   0  0  0  0  0  0  0  0  0  0  0  0
  1  2  1  0
  2  3  1  0
  3  4  1  0
  4  5  1  0
  5  6  1  0
  6  7  1  0
  7  8  1  0
  8  9  1  0
  9 10  1  0
 10 11  1  0
 11 12  1  0
 12 13  1  0
 13 14  2  0
 14 15  1  0
 15 16  2  0
 16 17  1  0
 17 18  2  0
 16 19  1  0
 18 13  1  0
M  END
>  <CASRN>  (14) 
104-43-8

>  <Name>  (14) 
4-Dodecylphenol

>  <Active>  (14) 
3

>  <Inactive>  (14) 
0

>  <Bioactivity>  (14) 
Active

>  <Min LEL>  (14) 
40.0

>  <Max HDT>  (14) 
nan

>  <Class>  (14) 
1

>  <Code>  (14) 
C104438

>  <NVS_NR_hER>  (14) 
1.0

>  <OT_ER_ERaERb_1440>  (14) 
1.0

>  <OT_FXR_FXRSRC1_0480>  (14) 
0.0

>  <OT_PPARg_PPARgSRC1_1440>  (14) 
0.0

>  <OT_FXR_FXRSRC1_1440>  (14) 
1.0

>  <OT_NURR1_NURR1RXRa_0480>  (14) 
0.0

>  <OT_NURR1_NURR1RXRa_1440>  (14) 
0.0

>  <OT_PPARg_PPARgSRC1_0480>  (14) 
0.0

>  <OT_AR_ARELUC_AG_1440>  (14) 
0.0

>  <OT_ERa_EREGFP_0120>  (14) 
1.0

>  <ATG_CAR_TRANS_up>  (14) 
0.0

>  <ATG_E2F_CIS_dn>  (14) 
0.0

>  <ATG_EGR_CIS_up>  (14) 
0.0

>  <ATG_ERa_TRANS_dn>  (14) 
0.0

>  <ATG_ERa_TRANS_up>  (14) 
1.0

>  <ATG_FXR_TRANS_dn>  (14) 
0.0

>  <ATG_GLI_CIS_dn>  (14) 
0.0

>  <ATG_GRE_CIS_up>  (14) 
0.0

>  <ATG_LXRa_TRANS_dn>  (14) 
0.0

>  <ATG_LXRa_TRANS_up>  (14) 
0.0

>  <ATG_NRF1_CIS_up>  (14) 
0.0

>  <ATG_NURR1_TRANS_up>  (14) 
0.0

>  <ATG_Sox_CIS_dn>  (14) 
0.0

>  <ATG_Sox_CIS_up>  (14) 
0.0

>  <ATG_Sp1_CIS_up>  (14) 
0.0

>  <ATG_TGFb_CIS_up>  (14) 
0.0

>  <TOX21_ARE_BLA_agonist_ratio>  (14) 
1.0

>  <TOX21_RAR_LUC_Antagonist>  (14) 
1.0

>  <ATG_LXRb_TRANS_dn>  (14) 
0.0

>  <ATG_CAR_TRANS_dn>  (14) 
0.0

>  <ATG_BRE_CIS_dn>  (14) 
0.0

>  <ATG_E2F_CIS_up>  (14) 
0.0

>  <TOX21_TSHR_Agonist_ratio>  (14) 
1.0

>  <ACEA_ER_80hr>  (14) 
1.0

>  <TOX21_CAR_Agonist_viabillity>  (14) 
1.0

>  <TOX21_PR_BLA_Agonist_viability>  (14) 
1.0

>  <TOX21_RT_HEPG2_FLO_40hr_ctrl_viability>  (14) 
1.0

>  <TOX21_AhR_LUC_Agonist_viability>  (14) 
1.0

>  <TOX21_ERR_viability>  (14) 
1.0

>  <TOX21_p53_BLA_p3_viability>  (14) 
1.0

>  <NVS_NR_cAR>  (14) 
0.0

>  <NVS_NR_hPR>  (14) 
0.0

>  <BSK_3C_HLADR_down>  (14) 
1.0

>  <BSK_3C_Vis_down>  (14) 
1.0

>  <BSK_3C_uPAR_down>  (14) 
1.0

>  <NVS_NR_rAR>  (14) 
0.0

>  <NVS_NR_hGR>  (14) 
0.0

>  <NVS_NR_hAR>  (14) 
0.0

>  <NVS_NR_bER>  (14) 
1.0

>  <ACEA_AR_agonist_80hr>  (14) 
0.0

>  <ACEA_AR_agonist_AUC_viability>  (14) 
1.0

>  <ACEA_AR_antagonist_80hr>  (14) 
1.0

>  <ACEA_AR_antagonist_AUC_viability>  (14) 
1.0

>  <ACEA_ER_AUC_viability>  (14) 
1.0

>  <ATG_AP_1_CIS_dn>  (14) 
0.0

>  <ATG_AP_1_CIS_up>  (14) 
0.0

>  <ATG_AP_2_CIS_dn>  (14) 
0.0

>  <ATG_AP_2_CIS_up>  (14) 
0.0

>  <ATG_AR_TRANS_dn>  (14) 
0.0

>  <ATG_AR_TRANS_up>  (14) 
0.0

>  <ATG_Ahr_CIS_dn>  (14) 
0.0

>  <ATG_Ahr_CIS_up>  (14) 
0.0

>  <ATG_BRE_CIS_up>  (14) 
0.0

>  <ATG_CMV_CIS_dn>  (14) 
0.0

>  <ATG_CMV_CIS_up>  (14) 
0.0

>  <ATG_CRE_CIS_dn>  (14) 
0.0

>  <ATG_CRE_CIS_up>  (14) 
0.0

>  <ATG_C_EBP_CIS_dn>  (14) 
0.0

>  <ATG_C_EBP_CIS_up>  (14) 
0.0

>  <ATG_DR4_LXR_CIS_dn>  (14) 
0.0

>  <ATG_DR4_LXR_CIS_up>  (14) 
0.0

>  <ATG_DR5_CIS_dn>  (14) 
0.0

>  <ATG_DR5_CIS_up>  (14) 
0.0

>  <ATG_EGR_CIS_dn>  (14) 
0.0

>  <ATG_ERE_CIS_dn>  (14) 
0.0

>  <ATG_ERE_CIS_up>  (14) 
1.0

>  <ATG_ERRa_TRANS_dn>  (14) 
0.0

>  <ATG_ERRa_TRANS_up>  (14) 
0.0

>  <ATG_ERRg_TRANS_dn>  (14) 
0.0

>  <ATG_ERRg_TRANS_up>  (14) 
0.0

>  <ATG_E_Box_CIS_dn>  (14) 
0.0

>  <ATG_E_Box_CIS_up>  (14) 
0.0

>  <ATG_Ets_CIS_dn>  (14) 
0.0

>  <ATG_Ets_CIS_up>  (14) 
0.0

>  <ATG_FXR_TRANS_up>  (14) 
0.0

>  <ATG_FoxA2_CIS_dn>  (14) 
0.0

>  <ATG_FoxA2_CIS_up>  (14) 
0.0

>  <ATG_FoxO_CIS_dn>  (14) 
0.0

>  <ATG_FoxO_CIS_up>  (14) 
0.0

>  <ATG_GAL4_TRANS_dn>  (14) 
0.0

>  <ATG_GAL4_TRANS_up>  (14) 
0.0

>  <ATG_GATA_CIS_dn>  (14) 
0.0

>  <ATG_GATA_CIS_up>  (14) 
0.0

>  <ATG_GLI_CIS_up>  (14) 
0.0

>  <ATG_GRE_CIS_dn>  (14) 
0.0

>  <ATG_GR_TRANS_dn>  (14) 
0.0

>  <ATG_GR_TRANS_up>  (14) 
0.0

>  <ATG_HIF1a_CIS_dn>  (14) 
0.0

>  <ATG_HIF1a_CIS_up>  (14) 
0.0

>  <ATG_HNF4a_TRANS_dn>  (14) 
0.0

>  <ATG_HNF4a_TRANS_up>  (14) 
0.0

>  <ATG_HNF6_CIS_dn>  (14) 
0.0

>  <ATG_HNF6_CIS_up>  (14) 
0.0

>  <ATG_HSE_CIS_dn>  (14) 
0.0

>  <ATG_HSE_CIS_up>  (14) 
0.0

>  <ATG_IR1_CIS_dn>  (14) 
0.0

>  <ATG_IR1_CIS_up>  (14) 
0.0

>  <ATG_ISRE_CIS_dn>  (14) 
0.0

>  <ATG_ISRE_CIS_up>  (14) 
0.0

>  <ATG_LXRb_TRANS_up>  (14) 
1.0

>  <ATG_MRE_CIS_dn>  (14) 
0.0

>  <ATG_MRE_CIS_up>  (14) 
0.0

>  <ATG_M_06_CIS_dn>  (14) 
0.0

>  <ATG_M_06_CIS_up>  (14) 
0.0

>  <ATG_M_06_TRANS_dn>  (14) 
0.0

>  <ATG_M_06_TRANS_up>  (14) 
0.0

>  <ATG_M_19_CIS_dn>  (14) 
0.0

>  <ATG_M_19_CIS_up>  (14) 
0.0

>  <ATG_M_19_TRANS_dn>  (14) 
0.0

>  <ATG_M_19_TRANS_up>  (14) 
0.0

>  <ATG_M_32_CIS_dn>  (14) 
0.0

>  <ATG_M_32_CIS_up>  (14) 
0.0

>  <ATG_M_32_TRANS_dn>  (14) 
0.0

>  <ATG_M_32_TRANS_up>  (14) 
0.0

>  <ATG_M_61_CIS_dn>  (14) 
0.0

>  <ATG_M_61_CIS_up>  (14) 
0.0

>  <ATG_M_61_TRANS_dn>  (14) 
0.0

>  <ATG_M_61_TRANS_up>  (14) 
0.0

>  <ATG_Myb_CIS_dn>  (14) 
0.0

>  <ATG_Myb_CIS_up>  (14) 
0.0

>  <ATG_Myc_CIS_dn>  (14) 
0.0

>  <ATG_Myc_CIS_up>  (14) 
0.0

>  <ATG_NFI_CIS_dn>  (14) 
0.0

>  <ATG_NFI_CIS_up>  (14) 
0.0

>  <ATG_NF_kB_CIS_dn>  (14) 
0.0

>  <ATG_NF_kB_CIS_up>  (14) 
0.0

>  <ATG_NRF1_CIS_dn>  (14) 
0.0

>  <ATG_NRF2_ARE_CIS_dn>  (14) 
0.0

>  <ATG_NRF2_ARE_CIS_up>  (14) 
0.0

>  <ATG_NURR1_TRANS_dn>  (14) 
0.0

>  <ATG_Oct_MLP_CIS_dn>  (14) 
0.0

>  <ATG_Oct_MLP_CIS_up>  (14) 
0.0

>  <ATG_PBREM_CIS_dn>  (14) 
0.0

>  <ATG_PBREM_CIS_up>  (14) 
0.0

>  <ATG_PPARa_TRANS_dn>  (14) 
0.0

>  <ATG_PPARa_TRANS_up>  (14) 
0.0

>  <ATG_PPARd_TRANS_dn>  (14) 
0.0

>  <ATG_PPARd_TRANS_up>  (14) 
0.0

>  <ATG_PPARg_TRANS_dn>  (14) 
0.0

>  <ATG_PPARg_TRANS_up>  (14) 
0.0

>  <ATG_PPRE_CIS_dn>  (14) 
0.0

>  <ATG_PPRE_CIS_up>  (14) 
0.0

>  <ATG_PXRE_CIS_dn>  (14) 
0.0

>  <ATG_PXRE_CIS_up>  (14) 
1.0

>  <ATG_PXR_TRANS_dn>  (14) 
0.0

>  <ATG_PXR_TRANS_up>  (14) 
1.0

>  <ATG_Pax6_CIS_dn>  (14) 
0.0

>  <ATG_Pax6_CIS_up>  (14) 
0.0

>  <ATG_RARa_TRANS_dn>  (14) 
0.0

>  <ATG_RARa_TRANS_up>  (14) 
0.0

>  <ATG_RARb_TRANS_dn>  (14) 
0.0

>  <ATG_RARb_TRANS_up>  (14) 
0.0

>  <ATG_RARg_TRANS_dn>  (14) 
0.0

>  <ATG_RARg_TRANS_up>  (14) 
0.0

>  <ATG_RORE_CIS_dn>  (14) 
0.0

>  <ATG_RORE_CIS_up>  (14) 
0.0

>  <ATG_RORb_TRANS_dn>  (14) 
0.0

>  <ATG_RORb_TRANS_up>  (14) 
0.0

>  <ATG_RORg_TRANS_dn>  (14) 
0.0

>  <ATG_RORg_TRANS_up>  (14) 
0.0

>  <ATG_RXRa_TRANS_dn>  (14) 
0.0

>  <ATG_RXRa_TRANS_up>  (14) 
0.0

>  <ATG_RXRb_TRANS_dn>  (14) 
0.0

>  <ATG_RXRb_TRANS_up>  (14) 
1.0

>  <ATG_SREBP_CIS_dn>  (14) 
0.0

>  <ATG_SREBP_CIS_up>  (14) 
0.0

>  <ATG_STAT3_CIS_dn>  (14) 
0.0

>  <ATG_STAT3_CIS_up>  (14) 
0.0

>  <ATG_Sp1_CIS_dn>  (14) 
0.0

>  <ATG_TAL_CIS_dn>  (14) 
0.0

>  <ATG_TAL_CIS_up>  (14) 
0.0

>  <ATG_TA_CIS_dn>  (14) 
0.0

>  <ATG_TA_CIS_up>  (14) 
0.0

>  <ATG_TCF_b_cat_CIS_dn>  (14) 
0.0

>  <ATG_TCF_b_cat_CIS_up>  (14) 
0.0

>  <ATG_TGFb_CIS_dn>  (14) 
0.0

>  <ATG_THRa1_TRANS_dn>  (14) 
0.0

>  <ATG_THRa1_TRANS_up>  (14) 
0.0

>  <ATG_VDRE_CIS_dn>  (14) 
0.0

>  <ATG_VDRE_CIS_up>  (14) 
0.0

>  <ATG_VDR_TRANS_dn>  (14) 
0.0

>  <ATG_VDR_TRANS_up>  (14) 
0.0

>  <ATG_XTT_Cytotoxicity_up>  (14) 
1.0

>  <ATG_Xbp1_CIS_dn>  (14) 
0.0

>  <ATG_Xbp1_CIS_up>  (14) 
0.0

>  <ATG_p53_CIS_dn>  (14) 
0.0

>  <ATG_p53_CIS_up>  (14) 
0.0

>  <NCCT_HEK293T_CellTiterGLO>  (14) 
1.0

>  <NCCT_QuantiLum_inhib_2_dn>  (14) 
1.0

>  <NCCT_TPO_AUR_dn>  (14) 
1.0

>  <NHEERL_MED_hDIO1_dn>  (14) 
1.0

>  <NVS_GPCR_rTRH>  (14) 
0.0

>  <NVS_NR_hPPARg>  (14) 
0.0

>  <NVS_NR_hPXR>  (14) 
0.0

>  <NVS_NR_hRAR_Antagonist>  (14) 
0.0

>  <OT_AR_ARSRC1_0480>  (14) 
1.0

>  <OT_AR_ARSRC1_0960>  (14) 
1.0

>  <OT_ER_ERaERa_0480>  (14) 
1.0

>  <OT_ER_ERaERa_1440>  (14) 
1.0

>  <OT_ER_ERaERb_0480>  (14) 
1.0

>  <OT_ER_ERbERb_0480>  (14) 
1.0

>  <OT_ER_ERbERb_1440>  (14) 
1.0

>  <OT_ERa_EREGFP_0480>  (14) 
1.0

>  <TOX21_AP1_BLA_Agonist_ch1>  (14) 
1.0

>  <TOX21_AP1_BLA_Agonist_ch2>  (14) 
0.0

>  <TOX21_AP1_BLA_Agonist_ratio>  (14) 
1.0

>  <TOX21_AP1_BLA_Agonist_viability>  (14) 
1.0

>  <TOX21_ARE_BLA_Agonist_ch1>  (14) 
1.0

>  <TOX21_ARE_BLA_Agonist_ch2>  (14) 
0.0

>  <TOX21_ARE_BLA_agonist_viability>  (14) 
1.0

>  <TOX21_AR_BLA_Agonist_ch1>  (14) 
0.0

>  <TOX21_AR_BLA_Agonist_ch2>  (14) 
0.0

>  <TOX21_AR_BLA_Agonist_ratio>  (14) 
1.0

>  <TOX21_AR_BLA_Antagonist_ch1>  (14) 
0.0

>  <TOX21_AR_BLA_Antagonist_ch2>  (14) 
1.0

>  <TOX21_AR_BLA_Antagonist_ratio>  (14) 
1.0

>  <TOX21_AR_BLA_Antagonist_viability>  (14) 
1.0

>  <TOX21_AR_LUC_MDAKB2_Agonist>  (14) 
0.0

>  <TOX21_AR_LUC_MDAKB2_Agonist_3uM_Nilutamide>  (14) 
0.0

>  <TOX21_AR_LUC_MDAKB2_Agonist_3uM_Nilutamide_viability>  (14) 
1.0

>  <TOX21_AR_LUC_MDAKB2_Antagonist_0.5nM_R1881>  (14) 
1.0

>  <TOX21_AR_LUC_MDAKB2_Antagonist_0.5nM_R1881_viability>  (14) 
1.0

>  <TOX21_AR_LUC_MDAKB2_Antagonist_10nM_R1881>  (14) 
1.0

>  <TOX21_AR_LUC_MDAKB2_Antagonist_10nM_R1881_viability>  (14) 
1.0

>  <TOX21_AhR_LUC_Agonist>  (14) 
0.0

>  <TOX21_Aromatase_Inhibition>  (14) 
1.0

>  <TOX21_Aromatase_Inhibition_viability>  (14) 
1.0

>  <TOX21_AutoFluor_HEK293_Cell_blue>  (14) 
0.0

>  <TOX21_AutoFluor_HEK293_Cell_green>  (14) 
0.0

>  <TOX21_AutoFluor_HEK293_Cell_red>  (14) 
0.0

>  <TOX21_AutoFluor_HEK293_Media_blue>  (14) 
0.0

>  <TOX21_AutoFluor_HEK293_Media_green>  (14) 
0.0

>  <TOX21_AutoFluor_HEK293_Media_red>  (14) 
0.0

>  <TOX21_AutoFluor_HEPG2_Cell_blue>  (14) 
0.0

>  <TOX21_AutoFluor_HEPG2_Cell_green>  (14) 
0.0

>  <TOX21_AutoFluor_HEPG2_Cell_red>  (14) 
0.0

>  <TOX21_AutoFluor_HEPG2_Media_blue>  (14) 
0.0

>  <TOX21_AutoFluor_HEPG2_Media_green>  (14) 
0.0

>  <TOX21_AutoFluor_HEPG2_Media_red>  (14) 
0.0

>  <TOX21_CAR_Agonist>  (14) 
0.0

>  <TOX21_CAR_Antagonist>  (14) 
1.0

>  <TOX21_CAR_Antagonist_viability>  (14) 
1.0

>  <TOX21_CASP3_CHO>  (14) 
0.0

>  <TOX21_CASP3_CHO_viability>  (14) 
1.0

>  <TOX21_CASP3_HEPG2>  (14) 
0.0

>  <TOX21_CASP3_HEPG2_viability>  (14) 
1.0

>  <TOX21_DT40>  (14) 
1.0

>  <TOX21_DT40_100>  (14) 
1.0

>  <TOX21_DT40_657>  (14) 
1.0

>  <TOX21_ELG1_LUC_Agonist>  (14) 
0.0

>  <TOX21_ELG1_LUC_Agonist_viability>  (14) 
1.0

>  <TOX21_ERR_Agonist>  (14) 
0.0

>  <TOX21_ERR_Antagonist>  (14) 
1.0

>  <TOX21_ERa_BLA_Agonist_ch1>  (14) 
1.0

>  <TOX21_ERa_BLA_Agonist_ch2>  (14) 
1.0

>  <TOX21_ERa_BLA_Agonist_ratio>  (14) 
1.0

>  <TOX21_ERa_BLA_Antagonist_ch1>  (14) 
0.0

>  <TOX21_ERa_BLA_Antagonist_ch2>  (14) 
1.0

>  <TOX21_ERa_BLA_Antagonist_ratio>  (14) 
1.0

>  <TOX21_ERa_BLA_Antagonist_viability>  (14) 
1.0

>  <TOX21_ERa_LUC_VM7_Agonist>  (14) 
1.0

>  <TOX21_ERa_LUC_VM7_Agonist_10nM_ICI182780>  (14) 
1.0

>  <TOX21_ERa_LUC_VM7_Agonist_10nM_ICI182780_viability>  (14) 
1.0

>  <TOX21_ERa_LUC_VM7_Antagonist_0.1nM_E2>  (14) 
1.0

>  <TOX21_ERa_LUC_VM7_Antagonist_0.1nM_E2_viability>  (14) 
1.0

>  <TOX21_ERa_LUC_VM7_Antagonist_0.5nM_E2>  (14) 
1.0

>  <TOX21_ERa_LUC_VM7_Antagonist_0.5nM_E2_viability>  (14) 
1.0

>  <TOX21_ERb_BLA_Agonist_ch1>  (14) 
1.0

>  <TOX21_ERb_BLA_Agonist_ch2>  (14) 
0.0

>  <TOX21_ERb_BLA_Agonist_ratio>  (14) 
0.0

>  <TOX21_ERb_BLA_Agonist_viability>  (14) 
1.0

>  <TOX21_ERb_BLA_Antagonist_ch1>  (14) 
0.0

>  <TOX21_ERb_BLA_Antagonist_ch2>  (14) 
1.0

>  <TOX21_ERb_BLA_Antagonist_ratio>  (14) 
1.0

>  <TOX21_ERb_BLA_Antagonist_viability>  (14) 
1.0

>  <TOX21_ESRE_BLA_ch1>  (14) 
1.0

>  <TOX21_ESRE_BLA_ch2>  (14) 
0.0

>  <TOX21_ESRE_BLA_ratio>  (14) 
1.0

>  <TOX21_ESRE_BLA_viability>  (14) 
1.0

>  <TOX21_FXR_BLA_Antagonist_ch1>  (14) 
0.0

>  <TOX21_FXR_BLA_Antagonist_ch2>  (14) 
1.0

>  <TOX21_FXR_BLA_agonist_ch1>  (14) 
1.0

>  <TOX21_FXR_BLA_agonist_ch2>  (14) 
0.0

>  <TOX21_FXR_BLA_agonist_ratio>  (14) 
1.0

>  <TOX21_FXR_BLA_agonist_viability>  (14) 
1.0

>  <TOX21_FXR_BLA_antagonist_ratio>  (14) 
1.0

>  <TOX21_FXR_BLA_antagonist_viability>  (14) 
1.0

>  <TOX21_GR_BLA_Agonist_ch1>  (14) 
1.0

>  <TOX21_GR_BLA_Agonist_ch2>  (14) 
0.0

>  <TOX21_GR_BLA_Agonist_ratio>  (14) 
1.0

>  <TOX21_GR_BLA_Antagonist_ch1>  (14) 
0.0

>  <TOX21_GR_BLA_Antagonist_ch2>  (14) 
1.0

>  <TOX21_GR_BLA_Antagonist_ratio>  (14) 
0.0

>  <TOX21_GR_BLA_Antagonist_viability>  (14) 
1.0

>  <TOX21_H2AX_HTRF_CHO_Agonist_ch1>  (14) 
0.0

>  <TOX21_H2AX_HTRF_CHO_Agonist_ch2>  (14) 
0.0

>  <TOX21_H2AX_HTRF_CHO_Agonist_ratio>  (14) 
1.0

>  <TOX21_H2AX_HTRF_CHO_viability>  (14) 
1.0

>  <TOX21_HDAC_Inhibition>  (14) 
0.0

>  <TOX21_HDAC_Inhibition_viability>  (14) 
0.0

>  <TOX21_HRE_BLA_Agonist_ch1>  (14) 
1.0

>  <TOX21_HRE_BLA_Agonist_ch2>  (14) 
0.0

>  <TOX21_HRE_BLA_Agonist_ratio>  (14) 
1.0

>  <TOX21_HRE_BLA_Agonist_viability>  (14) 
1.0

>  <TOX21_HSE_BLA_agonist_ch1>  (14) 
1.0

>  <TOX21_HSE_BLA_agonist_ch2>  (14) 
0.0

>  <TOX21_HSE_BLA_agonist_ratio>  (14) 
1.0

>  <TOX21_HSE_BLA_agonist_viability>  (14) 
1.0

>  <TOX21_LUC_Biochem>  (14) 
0.0

>  <TOX21_MMP_fitc>  (14) 
0.0

>  <TOX21_MMP_ratio_down>  (14) 
1.0

>  <TOX21_MMP_ratio_up>  (14) 
0.0

>  <TOX21_MMP_rhodamine>  (14) 
1.0

>  <TOX21_MMP_viability>  (14) 
0.0

>  <TOX21_NFkB_BLA_agonist_ch1>  (14) 
1.0

>  <TOX21_NFkB_BLA_agonist_ch2>  (14) 
0.0

>  <TOX21_NFkB_BLA_agonist_ratio>  (14) 
1.0

>  <TOX21_NFkB_BLA_agonist_viability>  (14) 
1.0

>  <TOX21_PGC_ERR_Agonist>  (14) 
0.0

>  <TOX21_PGC_ERR_Antagonist>  (14) 
1.0

>  <TOX21_PGC_ERR_viability>  (14) 
1.0

>  <TOX21_PPARd_BLA_Agonist_viability>  (14) 
1.0

>  <TOX21_PPARd_BLA_Antagonist_ch1>  (14) 
0.0

>  <TOX21_PPARd_BLA_Antagonist_ch2>  (14) 
1.0

>  <TOX21_PPARd_BLA_agonist_ch1>  (14) 
1.0

>  <TOX21_PPARd_BLA_agonist_ch2>  (14) 
0.0

>  <TOX21_PPARd_BLA_agonist_ratio>  (14) 
1.0

>  <TOX21_PPARd_BLA_antagonist_ratio>  (14) 
0.0

>  <TOX21_PPARd_BLA_antagonist_viability>  (14) 
1.0

>  <TOX21_PPARg_BLA_Agonist_ch1>  (14) 
1.0

>  <TOX21_PPARg_BLA_Agonist_ch2>  (14) 
0.0

>  <TOX21_PPARg_BLA_Agonist_ratio>  (14) 
1.0

>  <TOX21_PPARg_BLA_Antagonist_ch1>  (14) 
0.0

>  <TOX21_PPARg_BLA_Antagonist_ch2>  (14) 
1.0

>  <TOX21_PPARg_BLA_antagonist_ratio>  (14) 
0.0

>  <TOX21_PPARg_BLA_antagonist_viability>  (14) 
1.0

>  <TOX21_PR_BLA_Agonist_ch1>  (14) 
1.0

>  <TOX21_PR_BLA_Agonist_ch2>  (14) 
0.0

>  <TOX21_PR_BLA_Agonist_ratio>  (14) 
0.0

>  <TOX21_PR_BLA_Antagonist_ch1>  (14) 
0.0

>  <TOX21_PR_BLA_Antagonist_ch2>  (14) 
1.0

>  <TOX21_PR_BLA_Antagonist_ratio>  (14) 
1.0

>  <TOX21_PR_BLA_Antagonist_viability>  (14) 
1.0

>  <TOX21_PXR_Agonist>  (14) 
1.0

>  <TOX21_PXR_viability>  (14) 
1.0

>  <TOX21_RAR_LUC_Agonist>  (14) 
0.0

>  <TOX21_RAR_LUC_Agonist_viability>  (14) 
1.0

>  <TOX21_RAR_LUC_Antagonist_viability>  (14) 
1.0

>  <TOX21_RORg_LUC_CHO_Antagonist>  (14) 
1.0

>  <TOX21_RORg_LUC_CHO_Antagonist_viability>  (14) 
1.0

>  <TOX21_RT_HEK293_FLO_00hr_viability>  (14) 
0.0

>  <TOX21_RT_HEK293_FLO_08hr_viability>  (14) 
1.0

>  <TOX21_RT_HEK293_FLO_16hr_viability>  (14) 
1.0

>  <TOX21_RT_HEK293_FLO_24hr_viability>  (14) 
1.0

>  <TOX21_RT_HEK293_FLO_32hr_viability>  (14) 
1.0

>  <TOX21_RT_HEK293_FLO_40hr_viability>  (14) 
1.0

>  <TOX21_RT_HEK293_GLO_00hr_viability>  (14) 
0.0

>  <TOX21_RT_HEK293_GLO_08hr_viability>  (14) 
1.0

>  <TOX21_RT_HEK293_GLO_16hr_viability>  (14) 
1.0

>  <TOX21_RT_HEK293_GLO_24hr_viability>  (14) 
1.0

>  <TOX21_RT_HEK293_GLO_32hr_viability>  (14) 
1.0

>  <TOX21_RT_HEK293_GLO_40hr_viability>  (14) 
1.0

>  <TOX21_RT_HEPG2_FLO_00hr_ctrl_viability>  (14) 
0.0

>  <TOX21_RT_HEPG2_FLO_08hr_viability>  (14) 
1.0

>  <TOX21_RT_HEPG2_FLO_16hr_ctrl_viability>  (14) 
1.0

>  <TOX21_RT_HEPG2_FLO_24hr_viability>  (14) 
1.0

>  <TOX21_RT_HEPG2_FLO_32hr_ctrl_viability>  (14) 
1.0

>  <TOX21_RT_HEPG2_GLO_00hr_ctrl_viability>  (14) 
0.0

>  <TOX21_RT_HEPG2_GLO_08hr_ctrl_viability>  (14) 
1.0

>  <TOX21_RT_HEPG2_GLO_16hr_ctrl_viability>  (14) 
1.0

>  <TOX21_RT_HEPG2_GLO_24hr_ctrl_viability>  (14) 
1.0

>  <TOX21_RT_HEPG2_GLO_32hr_ctrl_viability>  (14) 
1.0

>  <TOX21_RT_HEPG2_GLO_40hr_viability>  (14) 
1.0

>  <TOX21_RXR_BLA_Agonist_ch1>  (14) 
1.0

>  <TOX21_RXR_BLA_Agonist_ch2>  (14) 
0.0

>  <TOX21_RXR_BLA_Agonist_ratio>  (14) 
1.0

>  <TOX21_RXR_BLA_Agonist_viability>  (14) 
1.0

>  <TOX21_SBE_BLA_Agonist_ch1>  (14) 
1.0

>  <TOX21_SBE_BLA_Agonist_ch2>  (14) 
0.0

>  <TOX21_SBE_BLA_Agonist_ratio>  (14) 
0.0

>  <TOX21_SBE_BLA_Agonist_viability>  (14) 
1.0

>  <TOX21_SBE_BLA_Antagonist_ch1>  (14) 
0.0

>  <TOX21_SBE_BLA_Antagonist_ch2>  (14) 
1.0

>  <TOX21_SBE_BLA_Antagonist_ratio>  (14) 
1.0

>  <TOX21_SBE_BLA_Antagonist_viability>  (14) 
1.0

>  <TOX21_SSH_3T3_GLI3_Agonist>  (14) 
0.0

>  <TOX21_SSH_3T3_GLI3_Agonist_viability>  (14) 
1.0

>  <TOX21_SSH_3T3_GLI3_Antagonist>  (14) 
1.0

>  <TOX21_SSH_3T3_GLI3_Antagonist_viability>  (14) 
1.0

>  <TOX21_TRHR_HEK293_Agonist>  (14) 
0.0

>  <TOX21_TRHR_HEK293_Antagonist>  (14) 
0.0

>  <TOX21_TR_LUC_GH3_Agonist>  (14) 
0.0

>  <TOX21_TR_LUC_GH3_Antagonist>  (14) 
1.0

>  <TOX21_TR_LUC_GH3_Antagonist_viability>  (14) 
1.0

>  <TOX21_TSHR_Agonist_ch2>  (14) 
0.0

>  <TOX21_TSHR_Antagonist_ch2>  (14) 
0.0

>  <TOX21_TSHR_Antagonist_ratio>  (14) 
0.0

>  <TOX21_TSHR_HTRF_Agonist_ch1>  (14) 
1.0

>  <TOX21_TSHR_HTRF_Antagonist_ch1>  (14) 
0.0

>  <TOX21_TSHR_wt_HTRF_ch1>  (14) 
0.0

>  <TOX21_TSHR_wt_ch2>  (14) 
0.0

>  <TOX21_TSHR_wt_ratio>  (14) 
0.0

>  <TOX21_VDR_BLA_Agonist_viability>  (14) 
1.0

>  <TOX21_VDR_BLA_Antagonist_ch1>  (14) 
0.0

>  <TOX21_VDR_BLA_Antagonist_ch2>  (14) 
1.0

>  <TOX21_VDR_BLA_agonist_ch1>  (14) 
0.0

>  <TOX21_VDR_BLA_agonist_ch2>  (14) 
0.0

>  <TOX21_VDR_BLA_agonist_ratio>  (14) 
1.0

>  <TOX21_VDR_BLA_antagonist_ratio>  (14) 
1.0

>  <TOX21_VDR_BLA_antagonist_viability>  (14) 
1.0

>  <TOX21_p53_BLA_p1_ch1>  (14) 
1.0

>  <TOX21_p53_BLA_p1_ch2>  (14) 
0.0

>  <TOX21_p53_BLA_p1_ratio>  (14) 
1.0

>  <TOX21_p53_BLA_p1_viability>  (14) 
1.0

>  <TOX21_p53_BLA_p2_ch1>  (14) 
1.0

>  <TOX21_p53_BLA_p2_ch2>  (14) 
0.0

>  <TOX21_p53_BLA_p2_ratio>  (14) 
1.0

>  <TOX21_p53_BLA_p2_viability>  (14) 
1.0

>  <TOX21_p53_BLA_p3_ch1>  (14) 
1.0

>  <TOX21_p53_BLA_p3_ch2>  (14) 
0.0

>  <TOX21_p53_BLA_p3_ratio>  (14) 
1.0

>  <TOX21_p53_BLA_p4_ch1>  (14) 
1.0

>  <TOX21_p53_BLA_p4_ch2>  (14) 
0.0

>  <TOX21_p53_BLA_p4_ratio>  (14) 
1.0

>  <TOX21_p53_BLA_p4_viability>  (14) 
1.0

>  <TOX21_p53_BLA_p5_ch1>  (14) 
1.0

>  <TOX21_p53_BLA_p5_ch2>  (14) 
0.0

>  <TOX21_p53_BLA_p5_ratio>  (14) 
1.0

>  <TOX21_p53_BLA_p5_viability>  (14) 
1.0

>  <UPITT_HCI_U2OS_AR_TIF2_Nucleoli_Agonist>  (14) 
0.0

>  <UPITT_HCI_U2OS_AR_TIF2_Nucleoli_Antagonist>  (14) 
1.0

>  <UPITT_HCI_U2OS_AR_TIF2_Nucleoli_Cytoplasm_Ratio_Agonist>  (14) 
1.0

>  <UPITT_HCI_U2OS_AR_TIF2_Nucleoli_Cytoplasm_Ratio_Antagonist>  (14) 
0.0

>  <NVS_NR_mERa>  (14) 
0

$$$$

     RDKit          3D

 21 24  0  0  0  0  0  0  0  0999 V2000
    0.0000    0.0000    0.0000 C   0  0  0  0  0  0  0  0  0  0  0  0
    0.0000    0.0000    0.0000 C   0  0  0  0  0  0  0  0  0  0  0  0
    0.0000    0.0000    0.0000 C   0  0  0  0  0  0  0  0  0  0  0  0
    0.0000    0.0000    0.0000 C   0  0  0  0  0  0  0  0  0  0  0  0
    0.0000    0.0000    0.0000 C   0  0  0  0  0  0  0  0  0  0  0  0
    0.0000    0.0000    0.0000 O   0  0  0  0  0  0  0  0  0  0  0  0
    0.0000    0.0000    0.0000 C   0  0  0  0  0  0  0  0  0  0  0  0
    0.0000    0.0000    0.0000 C   0  0  0  0  0  0  0  0  0  0  0  0
    0.0000    0.0000    0.0000 C   0  0  0  0  0  0  0  0  0  0  0  0
    0.0000    0.0000    0.0000 C   0  0  0  0  0  0  0  0  0  0  0  0
    0.0000    0.0000    0.0000 C   0  0  0  0  0  0  0  0  0  0  0  0
    0.0000    0.0000    0.0000 C   0  0  0  0  0  0  0  0  0  0  0  0
    0.0000    0.0000    0.0000 C   0  0  0  0  0  0  0  0  0  0  0  0
    0.0000    0.0000    0.0000 C   0  0  0  0  0  0  0  0  0  0  0  0
    0.0000    0.0000    0.0000 C   0  0  0  0  0  0  0  0  0  0  0  0
    0.0000    0.0000    0.0000 C   0  0  0  0  0  0  0  0  0  0  0  0
    0.0000    0.0000    0.0000 C   0  0  0  0  0  0  0  0  0  0  0  0
    0.0000    0.0000    0.0000 C   0  0  0  0  0  0  0  0  0  0  0  0
    0.0000    0.0000    0.0000 C   0  0  0  0  0  0  0  0  0  0  0  0
    0.0000    0.0000    0.0000 O   0  0  0  0  0  0  0  0  0  0  0  0
    0.0000    0.0000    0.0000 C   0  0  0  0  0  0  0  0  0  0  0  0
  1  2  1  0
  2  3  1  0
  3  4  1  0
  4  5  1  0
  5  6  2  0
  5  7  1  0
  7  8  1  0
  8  9  1  0
  9 10  1  0
 10 11  1  0
 11 12  1  0
 12 13  1  0
 13 14  1  0
 14 15  1  0
 15 16  1  0
 16 17  1  0
 17 18  1  0
 18 19  1  0
 19 20  1  0
 15 21  1  0
  8  2  1  0
 12  2  1  0
 16 11  1  0
 19 15  1  0
M  END
>  <CASRN>  (15) 
521-18-6

>  <Name>  (15) 
Dihydrotestosterone

>  <Active>  (15) 
3

>  <Inactive>  (15) 
0

>  <Bioactivity>  (15) 
Active

>  <Min LEL>  (15) 
20.0

>  <Max HDT>  (15) 
nan

>  <Class>  (15) 
1

>  <Code>  (15) 
C521186

>  <NVS_NR_hER>  (15) 
1.0

>  <NVS_NR_cAR>  (15) 
1.0

>  <NVS_NR_hAR>  (15) 
1.0

>  <NVS_NR_hGR>  (15) 
1.0

>  <NVS_NR_hPR>  (15) 
1.0

>  <NVS_NR_rAR>  (15) 
1.0

>  <OT_ER_ERaERb_1440>  (15) 
1.0

>  <OT_FXR_FXRSRC1_0480>  (15) 
1.0

>  <OT_PPARg_PPARgSRC1_1440>  (15) 
0.0

>  <OT_FXR_FXRSRC1_1440>  (15) 
1.0

>  <OT_NURR1_NURR1RXRa_0480>  (15) 
0.0

>  <OT_NURR1_NURR1RXRa_1440>  (15) 
0.0

>  <OT_PPARg_PPARgSRC1_0480>  (15) 
0.0

>  <OT_AR_ARELUC_AG_1440>  (15) 
1.0

>  <OT_ERa_EREGFP_0120>  (15) 
1.0

>  <BSK_3C_HLADR_down>  (15) 
1.0

>  <BSK_3C_Vis_down>  (15) 
0.0

>  <BSK_3C_uPAR_down>  (15) 
1.0

>  <ATG_CAR_TRANS_up>  (15) 
0.0

>  <ATG_E2F_CIS_dn>  (15) 
0.0

>  <ATG_EGR_CIS_up>  (15) 
0.0

>  <ATG_ERa_TRANS_dn>  (15) 
0.0

>  <ATG_ERa_TRANS_up>  (15) 
1.0

>  <ATG_FXR_TRANS_dn>  (15) 
0.0

>  <ATG_GLI_CIS_dn>  (15) 
0.0

>  <ATG_GRE_CIS_up>  (15) 
0.0

>  <ATG_LXRa_TRANS_dn>  (15) 
0.0

>  <ATG_LXRa_TRANS_up>  (15) 
0.0

>  <ATG_NRF1_CIS_up>  (15) 
0.0

>  <ATG_NURR1_TRANS_up>  (15) 
0.0

>  <ATG_Sox_CIS_dn>  (15) 
0.0

>  <ATG_Sox_CIS_up>  (15) 
0.0

>  <ATG_Sp1_CIS_up>  (15) 
0.0

>  <ATG_TGFb_CIS_up>  (15) 
1.0

>  <TOX21_ARE_BLA_agonist_ratio>  (15) 
1.0

>  <TOX21_RAR_LUC_Antagonist>  (15) 
0.0

>  <ATG_LXRb_TRANS_dn>  (15) 
0.0

>  <ATG_CAR_TRANS_dn>  (15) 
0.0

>  <ATG_BRE_CIS_dn>  (15) 
0.0

>  <ATG_E2F_CIS_up>  (15) 
0.0

>  <TOX21_TSHR_Agonist_ratio>  (15) 
0.0

>  <ACEA_ER_80hr>  (15) 
1.0

>  <TOX21_CAR_Agonist_viabillity>  (15) 
0.0

>  <TOX21_PR_BLA_Agonist_viability>  (15) 
0.0

>  <TOX21_RT_HEPG2_FLO_40hr_ctrl_viability>  (15) 
1.0

>  <TOX21_AhR_LUC_Agonist_viability>  (15) 
0.0

>  <TOX21_ERR_viability>  (15) 
0.0

>  <TOX21_p53_BLA_p3_viability>  (15) 
0.0

>  <NVS_NR_bER>  (15) 
0.0

>  <ACEA_AR_agonist_80hr>  (15) 
1.0

>  <ACEA_AR_agonist_AUC_viability>  (15) 
0.0

>  <ACEA_AR_antagonist_80hr>  (15) 
0.0

>  <ACEA_AR_antagonist_AUC_viability>  (15) 
0.0

>  <ACEA_ER_AUC_viability>  (15) 
0.0

>  <APR_HepG2_CellCycleArrest_24h_dn>  (15) 
0.0

>  <APR_HepG2_CellCycleArrest_24h_up>  (15) 
0.0

>  <APR_HepG2_CellCycleArrest_72h_dn>  (15) 
0.0

>  <APR_HepG2_CellCycleArrest_72h_up>  (15) 
0.0

>  <APR_HepG2_CellLoss_24h_dn>  (15) 
1.0

>  <APR_HepG2_CellLoss_24h_up>  (15) 
0.0

>  <APR_HepG2_CellLoss_72h_dn>  (15) 
1.0

>  <APR_HepG2_CellLoss_72h_up>  (15) 
0.0

>  <APR_HepG2_MicrotubuleCSK_24h_dn>  (15) 
0.0

>  <APR_HepG2_MicrotubuleCSK_24h_up>  (15) 
0.0

>  <APR_HepG2_MicrotubuleCSK_72h_dn>  (15) 
0.0

>  <APR_HepG2_MicrotubuleCSK_72h_up>  (15) 
0.0

>  <APR_HepG2_MitoMass_24h_dn>  (15) 
0.0

>  <APR_HepG2_MitoMass_24h_up>  (15) 
0.0

>  <APR_HepG2_MitoMass_72h_dn>  (15) 
0.0

>  <APR_HepG2_MitoMass_72h_up>  (15) 
0.0

>  <APR_HepG2_MitoMembPot_24h_dn>  (15) 
1.0

>  <APR_HepG2_MitoMembPot_24h_up>  (15) 
0.0

>  <APR_HepG2_MitoMembPot_72h_dn>  (15) 
0.0

>  <APR_HepG2_MitoMembPot_72h_up>  (15) 
0.0

>  <APR_HepG2_MitoticArrest_24h_dn>  (15) 
0.0

>  <APR_HepG2_MitoticArrest_24h_up>  (15) 
0.0

>  <APR_HepG2_MitoticArrest_72h_dn>  (15) 
0.0

>  <APR_HepG2_MitoticArrest_72h_up>  (15) 
1.0

>  <APR_HepG2_NuclearSize_24h_dn>  (15) 
0.0

>  <APR_HepG2_NuclearSize_24h_up>  (15) 
0.0

>  <APR_HepG2_NuclearSize_72h_dn>  (15) 
0.0

>  <APR_HepG2_NuclearSize_72h_up>  (15) 
0.0

>  <APR_HepG2_OxidativeStress_24h_dn>  (15) 
0.0

>  <APR_HepG2_OxidativeStress_24h_up>  (15) 
0.0

>  <APR_HepG2_OxidativeStress_72h_dn>  (15) 
0.0

>  <APR_HepG2_OxidativeStress_72h_up>  (15) 
1.0

>  <APR_HepG2_StressKinase_24h_dn>  (15) 
0.0

>  <APR_HepG2_StressKinase_24h_up>  (15) 
0.0

>  <APR_HepG2_StressKinase_72h_dn>  (15) 
0.0

>  <APR_HepG2_StressKinase_72h_up>  (15) 
0.0

>  <APR_HepG2_p53Act_24h_dn>  (15) 
0.0

>  <APR_HepG2_p53Act_24h_up>  (15) 
0.0

>  <APR_HepG2_p53Act_72h_dn>  (15) 
0.0

>  <APR_HepG2_p53Act_72h_up>  (15) 
0.0

>  <ATG_AP_1_CIS_dn>  (15) 
0.0

>  <ATG_AP_1_CIS_up>  (15) 
0.0

>  <ATG_AP_2_CIS_dn>  (15) 
0.0

>  <ATG_AP_2_CIS_up>  (15) 
0.0

>  <ATG_AR_TRANS_dn>  (15) 
0.0

>  <ATG_AR_TRANS_up>  (15) 
1.0

>  <ATG_Ahr_CIS_dn>  (15) 
0.0

>  <ATG_Ahr_CIS_up>  (15) 
0.0

>  <ATG_BRE_CIS_up>  (15) 
1.0

>  <ATG_CMV_CIS_dn>  (15) 
0.0

>  <ATG_CMV_CIS_up>  (15) 
1.0

>  <ATG_CRE_CIS_dn>  (15) 
0.0

>  <ATG_CRE_CIS_up>  (15) 
0.0

>  <ATG_C_EBP_CIS_dn>  (15) 
0.0

>  <ATG_C_EBP_CIS_up>  (15) 
0.0

>  <ATG_DR4_LXR_CIS_dn>  (15) 
0.0

>  <ATG_DR4_LXR_CIS_up>  (15) 
0.0

>  <ATG_DR5_CIS_dn>  (15) 
0.0

>  <ATG_DR5_CIS_up>  (15) 
0.0

>  <ATG_EGR_CIS_dn>  (15) 
0.0

>  <ATG_ERE_CIS_dn>  (15) 
0.0

>  <ATG_ERE_CIS_up>  (15) 
1.0

>  <ATG_ERRa_TRANS_dn>  (15) 
0.0

>  <ATG_ERRa_TRANS_up>  (15) 
0.0

>  <ATG_ERRg_TRANS_dn>  (15) 
0.0

>  <ATG_ERRg_TRANS_up>  (15) 
0.0

>  <ATG_E_Box_CIS_dn>  (15) 
1.0

>  <ATG_E_Box_CIS_up>  (15) 
0.0

>  <ATG_Ets_CIS_dn>  (15) 
0.0

>  <ATG_Ets_CIS_up>  (15) 
0.0

>  <ATG_FXR_TRANS_up>  (15) 
0.0

>  <ATG_FoxA2_CIS_dn>  (15) 
0.0

>  <ATG_FoxA2_CIS_up>  (15) 
0.0

>  <ATG_FoxO_CIS_dn>  (15) 
0.0

>  <ATG_FoxO_CIS_up>  (15) 
0.0

>  <ATG_GAL4_TRANS_dn>  (15) 
0.0

>  <ATG_GAL4_TRANS_up>  (15) 
0.0

>  <ATG_GATA_CIS_dn>  (15) 
0.0

>  <ATG_GATA_CIS_up>  (15) 
0.0

>  <ATG_GLI_CIS_up>  (15) 
0.0

>  <ATG_GRE_CIS_dn>  (15) 
0.0

>  <ATG_GR_TRANS_dn>  (15) 
0.0

>  <ATG_GR_TRANS_up>  (15) 
0.0

>  <ATG_HIF1a_CIS_dn>  (15) 
0.0

>  <ATG_HIF1a_CIS_up>  (15) 
0.0

>  <ATG_HNF4a_TRANS_dn>  (15) 
0.0

>  <ATG_HNF4a_TRANS_up>  (15) 
0.0

>  <ATG_HNF6_CIS_dn>  (15) 
0.0

>  <ATG_HNF6_CIS_up>  (15) 
0.0

>  <ATG_HSE_CIS_dn>  (15) 
0.0

>  <ATG_HSE_CIS_up>  (15) 
0.0

>  <ATG_IR1_CIS_dn>  (15) 
0.0

>  <ATG_IR1_CIS_up>  (15) 
0.0

>  <ATG_ISRE_CIS_dn>  (15) 
0.0

>  <ATG_ISRE_CIS_up>  (15) 
0.0

>  <ATG_LXRb_TRANS_up>  (15) 
0.0

>  <ATG_MRE_CIS_dn>  (15) 
0.0

>  <ATG_MRE_CIS_up>  (15) 
1.0

>  <ATG_M_06_CIS_dn>  (15) 
0.0

>  <ATG_M_06_CIS_up>  (15) 
0.0

>  <ATG_M_06_TRANS_dn>  (15) 
0.0

>  <ATG_M_06_TRANS_up>  (15) 
0.0

>  <ATG_M_19_CIS_dn>  (15) 
0.0

>  <ATG_M_19_CIS_up>  (15) 
0.0

>  <ATG_M_19_TRANS_dn>  (15) 
0.0

>  <ATG_M_19_TRANS_up>  (15) 
0.0

>  <ATG_M_32_CIS_dn>  (15) 
0.0

>  <ATG_M_32_CIS_up>  (15) 
0.0

>  <ATG_M_32_TRANS_dn>  (15) 
0.0

>  <ATG_M_32_TRANS_up>  (15) 
0.0

>  <ATG_M_61_CIS_dn>  (15) 
0.0

>  <ATG_M_61_CIS_up>  (15) 
0.0

>  <ATG_M_61_TRANS_dn>  (15) 
0.0

>  <ATG_M_61_TRANS_up>  (15) 
0.0

>  <ATG_Myb_CIS_dn>  (15) 
0.0

>  <ATG_Myb_CIS_up>  (15) 
0.0

>  <ATG_Myc_CIS_dn>  (15) 
0.0

>  <ATG_Myc_CIS_up>  (15) 
0.0

>  <ATG_NFI_CIS_dn>  (15) 
0.0

>  <ATG_NFI_CIS_up>  (15) 
0.0

>  <ATG_NF_kB_CIS_dn>  (15) 
0.0

>  <ATG_NF_kB_CIS_up>  (15) 
0.0

>  <ATG_NRF1_CIS_dn>  (15) 
1.0

>  <ATG_NRF2_ARE_CIS_dn>  (15) 
0.0

>  <ATG_NRF2_ARE_CIS_up>  (15) 
1.0

>  <ATG_NURR1_TRANS_dn>  (15) 
0.0

>  <ATG_Oct_MLP_CIS_dn>  (15) 
0.0

>  <ATG_Oct_MLP_CIS_up>  (15) 
0.0

>  <ATG_PBREM_CIS_dn>  (15) 
0.0

>  <ATG_PBREM_CIS_up>  (15) 
0.0

>  <ATG_PPARa_TRANS_dn>  (15) 
0.0

>  <ATG_PPARa_TRANS_up>  (15) 
0.0

>  <ATG_PPARd_TRANS_dn>  (15) 
0.0

>  <ATG_PPARd_TRANS_up>  (15) 
0.0

>  <ATG_PPARg_TRANS_dn>  (15) 
0.0

>  <ATG_PPARg_TRANS_up>  (15) 
0.0

>  <ATG_PPRE_CIS_dn>  (15) 
0.0

>  <ATG_PPRE_CIS_up>  (15) 
0.0

>  <ATG_PXRE_CIS_dn>  (15) 
0.0

>  <ATG_PXRE_CIS_up>  (15) 
1.0

>  <ATG_PXR_TRANS_dn>  (15) 
0.0

>  <ATG_PXR_TRANS_up>  (15) 
1.0

>  <ATG_Pax6_CIS_dn>  (15) 
0.0

>  <ATG_Pax6_CIS_up>  (15) 
0.0

>  <ATG_RARa_TRANS_dn>  (15) 
0.0

>  <ATG_RARa_TRANS_up>  (15) 
0.0

>  <ATG_RARb_TRANS_dn>  (15) 
0.0

>  <ATG_RARb_TRANS_up>  (15) 
0.0

>  <ATG_RARg_TRANS_dn>  (15) 
0.0

>  <ATG_RARg_TRANS_up>  (15) 
0.0

>  <ATG_RORE_CIS_dn>  (15) 
0.0

>  <ATG_RORE_CIS_up>  (15) 
0.0

>  <ATG_RORb_TRANS_dn>  (15) 
0.0

>  <ATG_RORb_TRANS_up>  (15) 
0.0

>  <ATG_RORg_TRANS_dn>  (15) 
0.0

>  <ATG_RORg_TRANS_up>  (15) 
0.0

>  <ATG_RXRa_TRANS_dn>  (15) 
0.0

>  <ATG_RXRa_TRANS_up>  (15) 
0.0

>  <ATG_RXRb_TRANS_dn>  (15) 
0.0

>  <ATG_RXRb_TRANS_up>  (15) 
0.0

>  <ATG_SREBP_CIS_dn>  (15) 
0.0

>  <ATG_SREBP_CIS_up>  (15) 
1.0

>  <ATG_STAT3_CIS_dn>  (15) 
0.0

>  <ATG_STAT3_CIS_up>  (15) 
0.0

>  <ATG_Sp1_CIS_dn>  (15) 
0.0

>  <ATG_TAL_CIS_dn>  (15) 
0.0

>  <ATG_TAL_CIS_up>  (15) 
0.0

>  <ATG_TA_CIS_dn>  (15) 
0.0

>  <ATG_TA_CIS_up>  (15) 
0.0

>  <ATG_TCF_b_cat_CIS_dn>  (15) 
1.0

>  <ATG_TCF_b_cat_CIS_up>  (15) 
0.0

>  <ATG_TGFb_CIS_dn>  (15) 
0.0

>  <ATG_THRa1_TRANS_dn>  (15) 
0.0

>  <ATG_THRa1_TRANS_up>  (15) 
0.0

>  <ATG_VDRE_CIS_dn>  (15) 
0.0

>  <ATG_VDRE_CIS_up>  (15) 
1.0

>  <ATG_VDR_TRANS_dn>  (15) 
0.0

>  <ATG_VDR_TRANS_up>  (15) 
0.0

>  <ATG_XTT_Cytotoxicity_up>  (15) 
0.0

>  <ATG_Xbp1_CIS_dn>  (15) 
0.0

>  <ATG_Xbp1_CIS_up>  (15) 
0.0

>  <ATG_p53_CIS_dn>  (15) 
0.0

>  <ATG_p53_CIS_up>  (15) 
0.0

>  <BSK_3C_Eselectin_down>  (15) 
1.0

>  <BSK_3C_Eselectin_up>  (15) 
0.0

>  <BSK_3C_HLADR_up>  (15) 
0.0

>  <BSK_3C_ICAM1_down>  (15) 
0.0

>  <BSK_3C_ICAM1_up>  (15) 
0.0

>  <BSK_3C_IL8_down>  (15) 
1.0

>  <BSK_3C_IL8_up>  (15) 
0.0

>  <BSK_3C_MCP1_down>  (15) 
1.0

>  <BSK_3C_MCP1_up>  (15) 
0.0

>  <BSK_3C_MIG_down>  (15) 
0.0

>  <BSK_3C_MIG_up>  (15) 
0.0

>  <BSK_3C_Proliferation_down>  (15) 
1.0

>  <BSK_3C_Proliferation_up>  (15) 
0.0

>  <BSK_3C_SRB_down>  (15) 
1.0

>  <BSK_3C_SRB_up>  (15) 
0.0

>  <BSK_3C_Thrombomodulin_down>  (15) 
0.0

>  <BSK_3C_Thrombomodulin_up>  (15) 
0.0

>  <BSK_3C_TissueFactor_down>  (15) 
0.0

>  <BSK_3C_TissueFactor_up>  (15) 
0.0

>  <BSK_3C_VCAM1_down>  (15) 
0.0

>  <BSK_3C_VCAM1_up>  (15) 
0.0

>  <BSK_3C_Vis_up>  (15) 
0.0

>  <BSK_3C_uPAR_up>  (15) 
0.0

>  <BSK_4H_Eotaxin3_down>  (15) 
0.0

>  <BSK_4H_Eotaxin3_up>  (15) 
0.0

>  <BSK_4H_MCP1_down>  (15) 
0.0

>  <BSK_4H_MCP1_up>  (15) 
0.0

>  <BSK_4H_Pselectin_down>  (15) 
0.0

>  <BSK_4H_Pselectin_up>  (15) 
0.0

>  <BSK_4H_SRB_down>  (15) 
0.0

>  <BSK_4H_SRB_up>  (15) 
0.0

>  <BSK_4H_VCAM1_down>  (15) 
0.0

>  <BSK_4H_VCAM1_up>  (15) 
0.0

>  <BSK_4H_VEGFRII_down>  (15) 
0.0

>  <BSK_4H_VEGFRII_up>  (15) 
0.0

>  <BSK_4H_uPAR_down>  (15) 
1.0

>  <BSK_4H_uPAR_up>  (15) 
0.0

>  <BSK_BE3C_HLADR_down>  (15) 
0.0

>  <BSK_BE3C_HLADR_up>  (15) 
0.0

>  <BSK_BE3C_IL1a_down>  (15) 
0.0

>  <BSK_BE3C_IL1a_up>  (15) 
0.0

>  <BSK_BE3C_IP10_down>  (15) 
0.0

>  <BSK_BE3C_IP10_up>  (15) 
0.0

>  <BSK_BE3C_MIG_down>  (15) 
0.0

>  <BSK_BE3C_MIG_up>  (15) 
0.0

>  <BSK_BE3C_MMP1_down>  (15) 
0.0

>  <BSK_BE3C_MMP1_up>  (15) 
0.0

>  <BSK_BE3C_PAI1_down>  (15) 
0.0

>  <BSK_BE3C_PAI1_up>  (15) 
0.0

>  <BSK_BE3C_SRB_down>  (15) 
0.0

>  <BSK_BE3C_SRB_up>  (15) 
0.0

>  <BSK_BE3C_TGFb1_down>  (15) 
0.0

>  <BSK_BE3C_TGFb1_up>  (15) 
0.0

>  <BSK_BE3C_tPA_down>  (15) 
0.0

>  <BSK_BE3C_tPA_up>  (15) 
0.0

>  <BSK_BE3C_uPAR_down>  (15) 
0.0

>  <BSK_BE3C_uPAR_up>  (15) 
0.0

>  <BSK_BE3C_uPA_down>  (15) 
0.0

>  <BSK_BE3C_uPA_up>  (15) 
0.0

>  <BSK_CASM3C_HLADR_down>  (15) 
0.0

>  <BSK_CASM3C_HLADR_up>  (15) 
0.0

>  <BSK_CASM3C_IL6_down>  (15) 
0.0

>  <BSK_CASM3C_IL6_up>  (15) 
0.0

>  <BSK_CASM3C_IL8_down>  (15) 
0.0

>  <BSK_CASM3C_IL8_up>  (15) 
0.0

>  <BSK_CASM3C_LDLR_down>  (15) 
0.0

>  <BSK_CASM3C_LDLR_up>  (15) 
0.0

>  <BSK_CASM3C_MCP1_down>  (15) 
0.0

>  <BSK_CASM3C_MCP1_up>  (15) 
0.0

>  <BSK_CASM3C_MCSF_down>  (15) 
0.0

>  <BSK_CASM3C_MCSF_up>  (15) 
0.0

>  <BSK_CASM3C_MIG_down>  (15) 
0.0

>  <BSK_CASM3C_MIG_up>  (15) 
0.0

>  <BSK_CASM3C_Proliferation_down>  (15) 
0.0

>  <BSK_CASM3C_Proliferation_up>  (15) 
0.0

>  <BSK_CASM3C_SAA_down>  (15) 
0.0

>  <BSK_CASM3C_SAA_up>  (15) 
0.0

>  <BSK_CASM3C_SRB_down>  (15) 
0.0

>  <BSK_CASM3C_SRB_up>  (15) 
0.0

>  <BSK_CASM3C_Thrombomodulin_down>  (15) 
0.0

>  <BSK_CASM3C_Thrombomodulin_up>  (15) 
0.0

>  <BSK_CASM3C_TissueFactor_down>  (15) 
0.0

>  <BSK_CASM3C_TissueFactor_up>  (15) 
0.0

>  <BSK_CASM3C_VCAM1_down>  (15) 
0.0

>  <BSK_CASM3C_VCAM1_up>  (15) 
0.0

>  <BSK_CASM3C_uPAR_down>  (15) 
0.0

>  <BSK_CASM3C_uPAR_up>  (15) 
0.0

>  <BSK_KF3CT_ICAM1_down>  (15) 
0.0

>  <BSK_KF3CT_ICAM1_up>  (15) 
0.0

>  <BSK_KF3CT_IL1a_down>  (15) 
0.0

>  <BSK_KF3CT_IL1a_up>  (15) 
0.0

>  <BSK_KF3CT_IP10_down>  (15) 
0.0

>  <BSK_KF3CT_IP10_up>  (15) 
0.0

>  <BSK_KF3CT_MCP1_down>  (15) 
0.0

>  <BSK_KF3CT_MCP1_up>  (15) 
0.0

>  <BSK_KF3CT_MMP9_down>  (15) 
0.0

>  <BSK_KF3CT_MMP9_up>  (15) 
0.0

>  <BSK_KF3CT_SRB_down>  (15) 
0.0

>  <BSK_KF3CT_SRB_up>  (15) 
0.0

>  <BSK_KF3CT_TGFb1_down>  (15) 
0.0

>  <BSK_KF3CT_TGFb1_up>  (15) 
0.0

>  <BSK_KF3CT_TIMP2_down>  (15) 
0.0

>  <BSK_KF3CT_TIMP2_up>  (15) 
0.0

>  <BSK_KF3CT_uPA_down>  (15) 
0.0

>  <BSK_KF3CT_uPA_up>  (15) 
0.0

>  <BSK_LPS_CD40_down>  (15) 
1.0

>  <BSK_LPS_CD40_up>  (15) 
0.0

>  <BSK_LPS_Eselectin_down>  (15) 
1.0

>  <BSK_LPS_Eselectin_up>  (15) 
0.0

>  <BSK_LPS_IL1a_down>  (15) 
0.0

>  <BSK_LPS_IL1a_up>  (15) 
0.0

>  <BSK_LPS_IL8_down>  (15) 
0.0

>  <BSK_LPS_IL8_up>  (15) 
0.0

>  <BSK_LPS_MCP1_down>  (15) 
1.0

>  <BSK_LPS_MCP1_up>  (15) 
0.0

>  <BSK_LPS_MCSF_down>  (15) 
1.0

>  <BSK_LPS_MCSF_up>  (15) 
0.0

>  <BSK_LPS_PGE2_down>  (15) 
0.0

>  <BSK_LPS_PGE2_up>  (15) 
1.0

>  <BSK_LPS_SRB_down>  (15) 
1.0

>  <BSK_LPS_SRB_up>  (15) 
0.0

>  <BSK_LPS_TNFa_down>  (15) 
0.0

>  <BSK_LPS_TNFa_up>  (15) 
0.0

>  <BSK_LPS_TissueFactor_down>  (15) 
0.0

>  <BSK_LPS_TissueFactor_up>  (15) 
0.0

>  <BSK_LPS_VCAM1_down>  (15) 
0.0

>  <BSK_LPS_VCAM1_up>  (15) 
0.0

>  <BSK_SAg_CD38_down>  (15) 
0.0

>  <BSK_SAg_CD38_up>  (15) 
0.0

>  <BSK_SAg_CD40_down>  (15) 
1.0

>  <BSK_SAg_CD40_up>  (15) 
0.0

>  <BSK_SAg_CD69_down>  (15) 
0.0

>  <BSK_SAg_CD69_up>  (15) 
0.0

>  <BSK_SAg_Eselectin_down>  (15) 
0.0

>  <BSK_SAg_Eselectin_up>  (15) 
0.0

>  <BSK_SAg_IL8_down>  (15) 
0.0

>  <BSK_SAg_IL8_up>  (15) 
0.0

>  <BSK_SAg_MCP1_down>  (15) 
1.0

>  <BSK_SAg_MCP1_up>  (15) 
0.0

>  <BSK_SAg_MIG_down>  (15) 
0.0

>  <BSK_SAg_MIG_up>  (15) 
0.0

>  <BSK_SAg_PBMCCytotoxicity_down>  (15) 
0.0

>  <BSK_SAg_PBMCCytotoxicity_up>  (15) 
0.0

>  <BSK_SAg_Proliferation_down>  (15) 
0.0

>  <BSK_SAg_Proliferation_up>  (15) 
0.0

>  <BSK_SAg_SRB_down>  (15) 
1.0

>  <BSK_SAg_SRB_up>  (15) 
0.0

>  <BSK_hDFCGF_CollagenIII_down>  (15) 
0.0

>  <BSK_hDFCGF_CollagenIII_up>  (15) 
0.0

>  <BSK_hDFCGF_EGFR_down>  (15) 
0.0

>  <BSK_hDFCGF_EGFR_up>  (15) 
0.0

>  <BSK_hDFCGF_IL8_down>  (15) 
0.0

>  <BSK_hDFCGF_IL8_up>  (15) 
0.0

>  <BSK_hDFCGF_IP10_down>  (15) 
0.0

>  <BSK_hDFCGF_IP10_up>  (15) 
0.0

>  <BSK_hDFCGF_MCSF_down>  (15) 
0.0

>  <BSK_hDFCGF_MCSF_up>  (15) 
0.0

>  <BSK_hDFCGF_MIG_down>  (15) 
0.0

>  <BSK_hDFCGF_MIG_up>  (15) 
1.0

>  <BSK_hDFCGF_MMP1_down>  (15) 
0.0

>  <BSK_hDFCGF_MMP1_up>  (15) 
0.0

>  <BSK_hDFCGF_PAI1_down>  (15) 
0.0

>  <BSK_hDFCGF_PAI1_up>  (15) 
0.0

>  <BSK_hDFCGF_Proliferation_down>  (15) 
0.0

>  <BSK_hDFCGF_Proliferation_up>  (15) 
0.0

>  <BSK_hDFCGF_SRB_down>  (15) 
0.0

>  <BSK_hDFCGF_SRB_up>  (15) 
0.0

>  <BSK_hDFCGF_TIMP1_down>  (15) 
0.0

>  <BSK_hDFCGF_TIMP1_up>  (15) 
0.0

>  <BSK_hDFCGF_VCAM1_down>  (15) 
0.0

>  <BSK_hDFCGF_VCAM1_up>  (15) 
0.0

>  <CEETOX_H295R_11DCORT_dn>  (15) 
1.0

>  <CEETOX_H295R_11DCORT_up>  (15) 
0.0

>  <CEETOX_H295R_ANDR_dn>  (15) 
1.0

>  <CEETOX_H295R_ANDR_up>  (15) 
0.0

>  <CEETOX_H295R_CORTIC_dn>  (15) 
0.0

>  <CEETOX_H295R_CORTIC_up>  (15) 
1.0

>  <CEETOX_H295R_CORTISOL_dn>  (15) 
1.0

>  <CEETOX_H295R_CORTISOL_up>  (15) 
0.0

>  <CEETOX_H295R_DOC_dn>  (15) 
0.0

>  <CEETOX_H295R_DOC_up>  (15) 
1.0

>  <CEETOX_H295R_ESTRADIOL_dn>  (15) 
1.0

>  <CEETOX_H295R_ESTRADIOL_up>  (15) 
0.0

>  <CEETOX_H295R_ESTRONE_dn>  (15) 
1.0

>  <CEETOX_H295R_ESTRONE_up>  (15) 
0.0

>  <CEETOX_H295R_MTT_cell_viability_dn>  (15) 
0.0

>  <CEETOX_H295R_MTT_cell_viability_up>  (15) 
0.0

>  <CEETOX_H295R_OHPREG_dn>  (15) 
1.0

>  <CEETOX_H295R_OHPREG_up>  (15) 
0.0

>  <CEETOX_H295R_OHPROG_dn>  (15) 
0.0

>  <CEETOX_H295R_OHPROG_up>  (15) 
0.0

>  <CEETOX_H295R_PROG_dn>  (15) 
0.0

>  <CEETOX_H295R_PROG_up>  (15) 
1.0

>  <CEETOX_H295R_TESTO_dn>  (15) 
0.0

>  <CEETOX_H295R_TESTO_up>  (15) 
1.0

>  <NHEERL_ZF_144hpf_TERATOSCORE_up>  (15) 
1.0

>  <NVS_ENZ_hEphB2>  (15) 
0.0

>  <NVS_ENZ_hEphB2_Activator>  (15) 
0.0

>  <NVS_ENZ_hHDAC6>  (15) 
0.0

>  <NVS_ENZ_hHDAC6_Activator>  (15) 
0.0

>  <NVS_ENZ_hPAK4>  (15) 
0.0

>  <NVS_ENZ_hPAK4_Activator>  (15) 
0.0

>  <NVS_ENZ_hPTPN14>  (15) 
0.0

>  <NVS_ENZ_hPTPN14_Activator>  (15) 
0.0

>  <NVS_ENZ_rMAOBP>  (15) 
0.0

>  <NVS_ENZ_rMAOBP_Activator>  (15) 
0.0

>  <NVS_GPCR_gLTB4>  (15) 
0.0

>  <NVS_GPCR_h5HT2A>  (15) 
0.0

>  <NVS_GPCR_rTRH>  (15) 
0.0

>  <NVS_IC_rCaChN>  (15) 
0.0

>  <NVS_NR_bPR>  (15) 
0.0

>  <NVS_NR_hPXR>  (15) 
0.0

>  <NVS_NR_rMR>  (15) 
1.0

>  <NVS_OR_gSIGMA_NonSelective>  (15) 
1.0

>  <OT_AR_ARSRC1_0480>  (15) 
1.0

>  <OT_AR_ARSRC1_0960>  (15) 
1.0

>  <OT_ER_ERaERa_0480>  (15) 
1.0

>  <OT_ER_ERaERa_1440>  (15) 
1.0

>  <OT_ER_ERaERb_0480>  (15) 
1.0

>  <OT_ER_ERbERb_0480>  (15) 
1.0

>  <OT_ER_ERbERb_1440>  (15) 
1.0

>  <OT_ERa_EREGFP_0480>  (15) 
1.0

>  <TOX21_AP1_BLA_Agonist_ch1>  (15) 
0.0

>  <TOX21_AP1_BLA_Agonist_ch2>  (15) 
1.0

>  <TOX21_AP1_BLA_Agonist_ratio>  (15) 
1.0

>  <TOX21_AP1_BLA_Agonist_viability>  (15) 
0.0

>  <TOX21_ARE_BLA_Agonist_ch1>  (15) 
0.0

>  <TOX21_ARE_BLA_Agonist_ch2>  (15) 
1.0

>  <TOX21_ARE_BLA_agonist_viability>  (15) 
0.0

>  <TOX21_AR_BLA_Agonist_ch1>  (15) 
0.0

>  <TOX21_AR_BLA_Agonist_ch2>  (15) 
1.0

>  <TOX21_AR_BLA_Agonist_ratio>  (15) 
1.0

>  <TOX21_AR_BLA_Antagonist_ch1>  (15) 
0.0

>  <TOX21_AR_BLA_Antagonist_ch2>  (15) 
0.0

>  <TOX21_AR_BLA_Antagonist_ratio>  (15) 
0.0

>  <TOX21_AR_BLA_Antagonist_viability>  (15) 
0.0

>  <TOX21_AR_LUC_MDAKB2_Agonist>  (15) 
1.0

>  <TOX21_AR_LUC_MDAKB2_Agonist_3uM_Nilutamide>  (15) 
1.0

>  <TOX21_AR_LUC_MDAKB2_Agonist_3uM_Nilutamide_viability>  (15) 
0.0

>  <TOX21_AR_LUC_MDAKB2_Antagonist_0.5nM_R1881>  (15) 
0.0

>  <TOX21_AR_LUC_MDAKB2_Antagonist_0.5nM_R1881_viability>  (15) 
0.0

>  <TOX21_AR_LUC_MDAKB2_Antagonist_10nM_R1881>  (15) 
0.0

>  <TOX21_AR_LUC_MDAKB2_Antagonist_10nM_R1881_viability>  (15) 
0.0

>  <TOX21_AhR_LUC_Agonist>  (15) 
0.0

>  <TOX21_Aromatase_Inhibition>  (15) 
0.0

>  <TOX21_Aromatase_Inhibition_viability>  (15) 
0.0

>  <TOX21_AutoFluor_HEK293_Cell_blue>  (15) 
0.0

>  <TOX21_AutoFluor_HEK293_Cell_green>  (15) 
0.0

>  <TOX21_AutoFluor_HEK293_Cell_red>  (15) 
0.0

>  <TOX21_AutoFluor_HEK293_Media_blue>  (15) 
0.0

>  <TOX21_AutoFluor_HEK293_Media_green>  (15) 
0.0

>  <TOX21_AutoFluor_HEK293_Media_red>  (15) 
0.0

>  <TOX21_AutoFluor_HEPG2_Cell_blue>  (15) 
0.0

>  <TOX21_AutoFluor_HEPG2_Cell_green>  (15) 
0.0

>  <TOX21_AutoFluor_HEPG2_Cell_red>  (15) 
0.0

>  <TOX21_AutoFluor_HEPG2_Media_blue>  (15) 
0.0

>  <TOX21_AutoFluor_HEPG2_Media_green>  (15) 
0.0

>  <TOX21_AutoFluor_HEPG2_Media_red>  (15) 
0.0

>  <TOX21_CAR_Agonist>  (15) 
0.0

>  <TOX21_CAR_Antagonist>  (15) 
0.0

>  <TOX21_CAR_Antagonist_viability>  (15) 
0.0

>  <TOX21_CASP3_CHO>  (15) 
0.0

>  <TOX21_CASP3_CHO_viability>  (15) 
1.0

>  <TOX21_CASP3_HEPG2>  (15) 
0.0

>  <TOX21_CASP3_HEPG2_viability>  (15) 
0.0

>  <TOX21_DT40>  (15) 
1.0

>  <TOX21_DT40_100>  (15) 
1.0

>  <TOX21_DT40_657>  (15) 
1.0

>  <TOX21_ELG1_LUC_Agonist>  (15) 
0.0

>  <TOX21_ELG1_LUC_Agonist_viability>  (15) 
0.0

>  <TOX21_ERR_Agonist>  (15) 
0.0

>  <TOX21_ERR_Antagonist>  (15) 
1.0

>  <TOX21_ERa_BLA_Agonist_ch1>  (15) 
1.0

>  <TOX21_ERa_BLA_Agonist_ch2>  (15) 
1.0

>  <TOX21_ERa_BLA_Agonist_ratio>  (15) 
1.0

>  <TOX21_ERa_BLA_Antagonist_ch1>  (15) 
0.0

>  <TOX21_ERa_BLA_Antagonist_ch2>  (15) 
0.0

>  <TOX21_ERa_BLA_Antagonist_ratio>  (15) 
0.0

>  <TOX21_ERa_BLA_Antagonist_viability>  (15) 
0.0

>  <TOX21_ERa_LUC_VM7_Agonist>  (15) 
1.0

>  <TOX21_ERa_LUC_VM7_Agonist_10nM_ICI182780>  (15) 
1.0

>  <TOX21_ERa_LUC_VM7_Agonist_10nM_ICI182780_viability>  (15) 
0.0

>  <TOX21_ERa_LUC_VM7_Antagonist_0.1nM_E2>  (15) 
0.0

>  <TOX21_ERa_LUC_VM7_Antagonist_0.1nM_E2_viability>  (15) 
0.0

>  <TOX21_ERa_LUC_VM7_Antagonist_0.5nM_E2>  (15) 
0.0

>  <TOX21_ERa_LUC_VM7_Antagonist_0.5nM_E2_viability>  (15) 
0.0

>  <TOX21_ERb_BLA_Agonist_ch1>  (15) 
0.0

>  <TOX21_ERb_BLA_Agonist_ch2>  (15) 
1.0

>  <TOX21_ERb_BLA_Agonist_ratio>  (15) 
1.0

>  <TOX21_ERb_BLA_Agonist_viability>  (15) 
1.0

>  <TOX21_ERb_BLA_Antagonist_ch1>  (15) 
0.0

>  <TOX21_ERb_BLA_Antagonist_ch2>  (15) 
0.0

>  <TOX21_ERb_BLA_Antagonist_ratio>  (15) 
0.0

>  <TOX21_ERb_BLA_Antagonist_viability>  (15) 
1.0

>  <TOX21_ESRE_BLA_ch1>  (15) 
0.0

>  <TOX21_ESRE_BLA_ch2>  (15) 
0.0

>  <TOX21_ESRE_BLA_ratio>  (15) 
0.0

>  <TOX21_ESRE_BLA_viability>  (15) 
0.0

>  <TOX21_FXR_BLA_Antagonist_ch1>  (15) 
0.0

>  <TOX21_FXR_BLA_Antagonist_ch2>  (15) 
0.0

>  <TOX21_FXR_BLA_agonist_ch1>  (15) 
0.0

>  <TOX21_FXR_BLA_agonist_ch2>  (15) 
0.0

>  <TOX21_FXR_BLA_agonist_ratio>  (15) 
0.0

>  <TOX21_FXR_BLA_agonist_viability>  (15) 
0.0

>  <TOX21_FXR_BLA_antagonist_ratio>  (15) 
1.0

>  <TOX21_FXR_BLA_antagonist_viability>  (15) 
0.0

>  <TOX21_GR_BLA_Agonist_ch1>  (15) 
0.0

>  <TOX21_GR_BLA_Agonist_ch2>  (15) 
0.0

>  <TOX21_GR_BLA_Agonist_ratio>  (15) 
0.0

>  <TOX21_GR_BLA_Antagonist_ch1>  (15) 
0.0

>  <TOX21_GR_BLA_Antagonist_ch2>  (15) 
1.0

>  <TOX21_GR_BLA_Antagonist_ratio>  (15) 
1.0

>  <TOX21_GR_BLA_Antagonist_viability>  (15) 
0.0

>  <TOX21_H2AX_HTRF_CHO_Agonist_ch1>  (15) 
0.0

>  <TOX21_H2AX_HTRF_CHO_Agonist_ch2>  (15) 
0.0

>  <TOX21_H2AX_HTRF_CHO_Agonist_ratio>  (15) 
0.0

>  <TOX21_H2AX_HTRF_CHO_viability>  (15) 
0.0

>  <TOX21_HDAC_Inhibition>  (15) 
0.0

>  <TOX21_HDAC_Inhibition_viability>  (15) 
0.0

>  <TOX21_HRE_BLA_Agonist_ch1>  (15) 
0.0

>  <TOX21_HRE_BLA_Agonist_ch2>  (15) 
0.0

>  <TOX21_HRE_BLA_Agonist_ratio>  (15) 
0.0

>  <TOX21_HRE_BLA_Agonist_viability>  (15) 
0.0

>  <TOX21_HSE_BLA_agonist_ch1>  (15) 
0.0

>  <TOX21_HSE_BLA_agonist_ch2>  (15) 
0.0

>  <TOX21_HSE_BLA_agonist_ratio>  (15) 
0.0

>  <TOX21_HSE_BLA_agonist_viability>  (15) 
0.0

>  <TOX21_LUC_Biochem>  (15) 
0.0

>  <TOX21_MMP_fitc>  (15) 
1.0

>  <TOX21_MMP_ratio_down>  (15) 
1.0

>  <TOX21_MMP_ratio_up>  (15) 
0.0

>  <TOX21_MMP_rhodamine>  (15) 
0.0

>  <TOX21_MMP_viability>  (15) 
0.0

>  <TOX21_NFkB_BLA_agonist_ch1>  (15) 
0.0

>  <TOX21_NFkB_BLA_agonist_ch2>  (15) 
0.0

>  <TOX21_NFkB_BLA_agonist_ratio>  (15) 
0.0

>  <TOX21_NFkB_BLA_agonist_viability>  (15) 
0.0

>  <TOX21_PGC_ERR_Agonist>  (15) 
0.0

>  <TOX21_PGC_ERR_Antagonist>  (15) 
1.0

>  <TOX21_PGC_ERR_viability>  (15) 
0.0

>  <TOX21_PPARd_BLA_Agonist_viability>  (15) 
0.0

>  <TOX21_PPARd_BLA_Antagonist_ch1>  (15) 
0.0

>  <TOX21_PPARd_BLA_Antagonist_ch2>  (15) 
0.0

>  <TOX21_PPARd_BLA_agonist_ch1>  (15) 
0.0

>  <TOX21_PPARd_BLA_agonist_ch2>  (15) 
0.0

>  <TOX21_PPARd_BLA_agonist_ratio>  (15) 
0.0

>  <TOX21_PPARd_BLA_antagonist_ratio>  (15) 
0.0

>  <TOX21_PPARd_BLA_antagonist_viability>  (15) 
0.0

>  <TOX21_PPARg_BLA_Agonist_ch1>  (15) 
0.0

>  <TOX21_PPARg_BLA_Agonist_ch2>  (15) 
0.0

>  <TOX21_PPARg_BLA_Agonist_ratio>  (15) 
0.0

>  <TOX21_PPARg_BLA_Antagonist_ch1>  (15) 
0.0

>  <TOX21_PPARg_BLA_Antagonist_ch2>  (15) 
0.0

>  <TOX21_PPARg_BLA_antagonist_ratio>  (15) 
0.0

>  <TOX21_PPARg_BLA_antagonist_viability>  (15) 
0.0

>  <TOX21_PR_BLA_Agonist_ch1>  (15) 
1.0

>  <TOX21_PR_BLA_Agonist_ch2>  (15) 
1.0

>  <TOX21_PR_BLA_Agonist_ratio>  (15) 
1.0

>  <TOX21_PR_BLA_Antagonist_ch1>  (15) 
0.0

>  <TOX21_PR_BLA_Antagonist_ch2>  (15) 
0.0

>  <TOX21_PR_BLA_Antagonist_ratio>  (15) 
1.0

>  <TOX21_PR_BLA_Antagonist_viability>  (15) 
0.0

>  <TOX21_PR_BLA_Followup_Agonist_ch1>  (15) 
0.0

>  <TOX21_PR_BLA_Followup_Agonist_ch2>  (15) 
1.0

>  <TOX21_PR_BLA_Followup_Agonist_ratio>  (15) 
1.0

>  <TOX21_PR_BLA_Followup_Agonist_viability>  (15) 
0.0

>  <TOX21_PR_BLA_Followup_Antagonist_ch1>  (15) 
0.0

>  <TOX21_PR_BLA_Followup_Antagonist_ch2>  (15) 
0.0

>  <TOX21_PR_BLA_Followup_Antagonist_ratio>  (15) 
1.0

>  <TOX21_PR_BLA_Followup_Antagonist_viability>  (15) 
0.0

>  <TOX21_PR_LUC_Followup_Agonist>  (15) 
1.0

>  <TOX21_PR_LUC_Followup_Agonist_viability>  (15) 
0.0

>  <TOX21_PR_LUC_Followup_Antagonist>  (15) 
0.0

>  <TOX21_PR_LUC_Followup_Antagonist_viability>  (15) 
0.0

>  <TOX21_PXR_Agonist>  (15) 
0.0

>  <TOX21_PXR_viability>  (15) 
0.0

>  <TOX21_RAR_LUC_Agonist>  (15) 
0.0

>  <TOX21_RAR_LUC_Agonist_viability>  (15) 
0.0

>  <TOX21_RAR_LUC_Antagonist_viability>  (15) 
0.0

>  <TOX21_RORg_LUC_CHO_Antagonist>  (15) 
1.0

>  <TOX21_RORg_LUC_CHO_Antagonist_viability>  (15) 
0.0

>  <TOX21_RT_HEK293_FLO_00hr_viability>  (15) 
0.0

>  <TOX21_RT_HEK293_FLO_08hr_viability>  (15) 
0.0

>  <TOX21_RT_HEK293_FLO_16hr_viability>  (15) 
0.0

>  <TOX21_RT_HEK293_FLO_24hr_viability>  (15) 
0.0

>  <TOX21_RT_HEK293_FLO_32hr_viability>  (15) 
1.0

>  <TOX21_RT_HEK293_FLO_40hr_viability>  (15) 
1.0

>  <TOX21_RT_HEK293_GLO_00hr_viability>  (15) 
0.0

>  <TOX21_RT_HEK293_GLO_08hr_viability>  (15) 
1.0

>  <TOX21_RT_HEK293_GLO_16hr_viability>  (15) 
1.0

>  <TOX21_RT_HEK293_GLO_24hr_viability>  (15) 
1.0

>  <TOX21_RT_HEK293_GLO_32hr_viability>  (15) 
1.0

>  <TOX21_RT_HEK293_GLO_40hr_viability>  (15) 
1.0

>  <TOX21_RT_HEPG2_FLO_00hr_ctrl_viability>  (15) 
0.0

>  <TOX21_RT_HEPG2_FLO_08hr_viability>  (15) 
0.0

>  <TOX21_RT_HEPG2_FLO_16hr_ctrl_viability>  (15) 
0.0

>  <TOX21_RT_HEPG2_FLO_24hr_viability>  (15) 
0.0

>  <TOX21_RT_HEPG2_FLO_32hr_ctrl_viability>  (15) 
0.0

>  <TOX21_RT_HEPG2_GLO_00hr_ctrl_viability>  (15) 
1.0

>  <TOX21_RT_HEPG2_GLO_08hr_ctrl_viability>  (15) 
0.0

>  <TOX21_RT_HEPG2_GLO_16hr_ctrl_viability>  (15) 
0.0

>  <TOX21_RT_HEPG2_GLO_24hr_ctrl_viability>  (15) 
1.0

>  <TOX21_RT_HEPG2_GLO_32hr_ctrl_viability>  (15) 
0.0

>  <TOX21_RT_HEPG2_GLO_40hr_viability>  (15) 
0.0

>  <TOX21_RXR_BLA_Agonist_ch1>  (15) 
0.0

>  <TOX21_RXR_BLA_Agonist_ch2>  (15) 
0.0

>  <TOX21_RXR_BLA_Agonist_ratio>  (15) 
0.0

>  <TOX21_RXR_BLA_Agonist_viability>  (15) 
0.0

>  <TOX21_SBE_BLA_Agonist_ch1>  (15) 
0.0

>  <TOX21_SBE_BLA_Agonist_ch2>  (15) 
0.0

>  <TOX21_SBE_BLA_Agonist_ratio>  (15) 
0.0

>  <TOX21_SBE_BLA_Agonist_viability>  (15) 
0.0

>  <TOX21_SBE_BLA_Antagonist_ch1>  (15) 
0.0

>  <TOX21_SBE_BLA_Antagonist_ch2>  (15) 
0.0

>  <TOX21_SBE_BLA_Antagonist_ratio>  (15) 
0.0

>  <TOX21_SBE_BLA_Antagonist_viability>  (15) 
0.0

>  <TOX21_SSH_3T3_GLI3_Agonist>  (15) 
0.0

>  <TOX21_SSH_3T3_GLI3_Agonist_viability>  (15) 
0.0

>  <TOX21_SSH_3T3_GLI3_Antagonist>  (15) 
1.0

>  <TOX21_SSH_3T3_GLI3_Antagonist_viability>  (15) 
0.0

>  <TOX21_TRHR_HEK293_Agonist>  (15) 
0.0

>  <TOX21_TRHR_HEK293_Antagonist>  (15) 
0.0

>  <TOX21_TR_LUC_GH3_Agonist>  (15) 
0.0

>  <TOX21_TR_LUC_GH3_Antagonist>  (15) 
1.0

>  <TOX21_TR_LUC_GH3_Antagonist_viability>  (15) 
0.0

>  <TOX21_TSHR_Agonist_ch2>  (15) 
0.0

>  <TOX21_TSHR_Antagonist_ch2>  (15) 
0.0

>  <TOX21_TSHR_Antagonist_ratio>  (15) 
0.0

>  <TOX21_TSHR_HTRF_Agonist_ch1>  (15) 
0.0

>  <TOX21_TSHR_HTRF_Antagonist_ch1>  (15) 
0.0

>  <TOX21_TSHR_wt_HTRF_ch1>  (15) 
0.0

>  <TOX21_TSHR_wt_ch2>  (15) 
0.0

>  <TOX21_TSHR_wt_ratio>  (15) 
0.0

>  <TOX21_VDR_BLA_Agonist_viability>  (15) 
0.0

>  <TOX21_VDR_BLA_Antagonist_ch1>  (15) 
0.0

>  <TOX21_VDR_BLA_Antagonist_ch2>  (15) 
0.0

>  <TOX21_VDR_BLA_agonist_ch1>  (15) 
0.0

>  <TOX21_VDR_BLA_agonist_ch2>  (15) 
0.0

>  <TOX21_VDR_BLA_agonist_ratio>  (15) 
0.0

>  <TOX21_VDR_BLA_antagonist_ratio>  (15) 
0.0

>  <TOX21_VDR_BLA_antagonist_viability>  (15) 
0.0

>  <TOX21_p53_BLA_p1_ch1>  (15) 
0.0

>  <TOX21_p53_BLA_p1_ch2>  (15) 
0.0

>  <TOX21_p53_BLA_p1_ratio>  (15) 
0.0

>  <TOX21_p53_BLA_p1_viability>  (15) 
0.0

>  <TOX21_p53_BLA_p2_ch1>  (15) 
0.0

>  <TOX21_p53_BLA_p2_ch2>  (15) 
0.0

>  <TOX21_p53_BLA_p2_ratio>  (15) 
0.0

>  <TOX21_p53_BLA_p2_viability>  (15) 
0.0

>  <TOX21_p53_BLA_p3_ch1>  (15) 
0.0

>  <TOX21_p53_BLA_p3_ch2>  (15) 
0.0

>  <TOX21_p53_BLA_p3_ratio>  (15) 
0.0

>  <TOX21_p53_BLA_p4_ch1>  (15) 
0.0

>  <TOX21_p53_BLA_p4_ch2>  (15) 
0.0

>  <TOX21_p53_BLA_p4_ratio>  (15) 
0.0

>  <TOX21_p53_BLA_p4_viability>  (15) 
0.0

>  <TOX21_p53_BLA_p5_ch1>  (15) 
0.0

>  <TOX21_p53_BLA_p5_ch2>  (15) 
0.0

>  <TOX21_p53_BLA_p5_ratio>  (15) 
0.0

>  <TOX21_p53_BLA_p5_viability>  (15) 
0.0

>  <Tanguay_ZF_120hpf_AXIS_up>  (15) 
0.0

>  <Tanguay_ZF_120hpf_ActivityScore>  (15) 
0.0

>  <Tanguay_ZF_120hpf_BRAI_up>  (15) 
0.0

>  <Tanguay_ZF_120hpf_CFIN_up>  (15) 
0.0

>  <Tanguay_ZF_120hpf_CIRC_up>  (15) 
0.0

>  <Tanguay_ZF_120hpf_EYE_up>  (15) 
0.0

>  <Tanguay_ZF_120hpf_JAW_up>  (15) 
0.0

>  <Tanguay_ZF_120hpf_MORT_up>  (15) 
0.0

>  <Tanguay_ZF_120hpf_NC_up>  (15) 
0.0

>  <Tanguay_ZF_120hpf_OTIC_up>  (15) 
0.0

>  <Tanguay_ZF_120hpf_PE_up>  (15) 
0.0

>  <Tanguay_ZF_120hpf_PFIN_up>  (15) 
0.0

>  <Tanguay_ZF_120hpf_PIG_up>  (15) 
0.0

>  <Tanguay_ZF_120hpf_SNOU_up>  (15) 
0.0

>  <Tanguay_ZF_120hpf_SOMI_up>  (15) 
0.0

>  <Tanguay_ZF_120hpf_SWIM_up>  (15) 
0.0

>  <Tanguay_ZF_120hpf_TRUN_up>  (15) 
0.0

>  <Tanguay_ZF_120hpf_TR_up>  (15) 
0.0

>  <Tanguay_ZF_120hpf_YSE_up>  (15) 
0.0

>  <UPITT_HCI_U2OS_AR_TIF2_Nucleoli_Agonist>  (15) 
1.0

>  <UPITT_HCI_U2OS_AR_TIF2_Nucleoli_Antagonist>  (15) 
0.0

>  <UPITT_HCI_U2OS_AR_TIF2_Nucleoli_Cytoplasm_Ratio_Agonist>  (15) 
1.0

>  <UPITT_HCI_U2OS_AR_TIF2_Nucleoli_Cytoplasm_Ratio_Antagonist>  (15) 
0.0

>  <NVS_NR_mERa>  (15) 
0.0

$$$$

     RDKit          3D

 18 19  0  0  0  0  0  0  0  0999 V2000
    0.0000    0.0000    0.0000 C   0  0  0  0  0  0  0  0  0  0  0  0
    0.0000    0.0000    0.0000 C   0  0  0  0  0  0  0  0  0  0  0  0
    0.0000    0.0000    0.0000 C   0  0  0  0  0  0  0  0  0  0  0  0
    0.0000    0.0000    0.0000 C   0  0  0  0  0  0  0  0  0  0  0  0
    0.0000    0.0000    0.0000 C   0  0  0  0  0  0  0  0  0  0  0  0
    0.0000    0.0000    0.0000 C   0  0  0  0  0  0  0  0  0  0  0  0
    0.0000    0.0000    0.0000 O   0  0  0  0  0  0  0  0  0  0  0  0
    0.0000    0.0000    0.0000 O   0  0  0  0  0  0  0  0  0  0  0  0
    0.0000    0.0000    0.0000 C   0  0  0  0  0  0  0  0  0  0  0  0
    0.0000    0.0000    0.0000 O   0  0  0  0  0  0  0  0  0  0  0  0
    0.0000    0.0000    0.0000 C   0  0  0  0  0  0  0  0  0  0  0  0
    0.0000    0.0000    0.0000 C   0  0  0  0  0  0  0  0  0  0  0  0
    0.0000    0.0000    0.0000 C   0  0  0  0  0  0  0  0  0  0  0  0
    0.0000    0.0000    0.0000 C   0  0  0  0  0  0  0  0  0  0  0  0
    0.0000    0.0000    0.0000 C   0  0  0  0  0  0  0  0  0  0  0  0
    0.0000    0.0000    0.0000 C   0  0  0  0  0  0  0  0  0  0  0  0
    0.0000    0.0000    0.0000 O   0  0  0  0  0  0  0  0  0  0  0  0
    0.0000    0.0000    0.0000 O   0  0  0  0  0  0  0  0  0  0  0  0
  1  2  2  0
  2  3  1  0
  3  4  2  0
  4  5  1  0
  5  6  2  0
  6  7  1  0
  4  8  1  0
  3  9  1  0
  9 10  2  0
  9 11  1  0
 11 12  2  0
 12 13  1  0
 13 14  2  0
 14 15  1  0
 15 16  2  0
 14 17  1  0
 12 18  1  0
  6  1  1  0
 16 11  1  0
M  END
>  <CASRN>  (16) 
131-55-5

>  <Name>  (16) 
Benzophenone-2

>  <Active>  (16) 
6

>  <Inactive>  (16) 
0

>  <Bioactivity>  (16) 
Active

>  <Min LEL>  (16) 
200.0

>  <Max HDT>  (16) 
nan

>  <Class>  (16) 
1

>  <Code>  (16) 
C131555

>  <NVS_NR_hER>  (16) 
1.0

>  <NVS_NR_cAR>  (16) 
1.0

>  <NVS_NR_hAR>  (16) 
1.0

>  <NVS_NR_hGR>  (16) 
1.0

>  <NVS_NR_hPR>  (16) 
1.0

>  <NVS_NR_rAR>  (16) 
1.0

>  <OT_ER_ERaERb_1440>  (16) 
1.0

>  <OT_FXR_FXRSRC1_0480>  (16) 
0.0

>  <OT_PPARg_PPARgSRC1_1440>  (16) 
0.0

>  <OT_FXR_FXRSRC1_1440>  (16) 
1.0

>  <OT_NURR1_NURR1RXRa_0480>  (16) 
0.0

>  <OT_NURR1_NURR1RXRa_1440>  (16) 
0.0

>  <OT_PPARg_PPARgSRC1_0480>  (16) 
0.0

>  <OT_AR_ARELUC_AG_1440>  (16) 
1.0

>  <OT_ERa_EREGFP_0120>  (16) 
1.0

>  <BSK_3C_HLADR_down>  (16) 
0.0

>  <BSK_3C_Vis_down>  (16) 
0.0

>  <BSK_3C_uPAR_down>  (16) 
0.0

>  <ATG_CAR_TRANS_up>  (16) 
0.0

>  <ATG_E2F_CIS_dn>  (16) 
0.0

>  <ATG_EGR_CIS_up>  (16) 
0.0

>  <ATG_ERa_TRANS_dn>  (16) 
0.0

>  <ATG_ERa_TRANS_up>  (16) 
1.0

>  <ATG_FXR_TRANS_dn>  (16) 
0.0

>  <ATG_GLI_CIS_dn>  (16) 
0.0

>  <ATG_GRE_CIS_up>  (16) 
0.0

>  <ATG_LXRa_TRANS_dn>  (16) 
0.0

>  <ATG_LXRa_TRANS_up>  (16) 
0.0

>  <ATG_NRF1_CIS_up>  (16) 
0.0

>  <ATG_NURR1_TRANS_up>  (16) 
0.0

>  <ATG_Sox_CIS_dn>  (16) 
0.0

>  <ATG_Sox_CIS_up>  (16) 
0.0

>  <ATG_Sp1_CIS_up>  (16) 
0.0

>  <ATG_TGFb_CIS_up>  (16) 
0.0

>  <TOX21_ARE_BLA_agonist_ratio>  (16) 
1.0

>  <TOX21_RAR_LUC_Antagonist>  (16) 
0.0

>  <ATG_LXRb_TRANS_dn>  (16) 
0.0

>  <ATG_CAR_TRANS_dn>  (16) 
0.0

>  <ATG_BRE_CIS_dn>  (16) 
0.0

>  <ATG_E2F_CIS_up>  (16) 
0.0

>  <TOX21_TSHR_Agonist_ratio>  (16) 
0.0

>  <ACEA_ER_80hr>  (16) 
1.0

>  <TOX21_CAR_Agonist_viabillity>  (16) 
0.0

>  <TOX21_PR_BLA_Agonist_viability>  (16) 
0.0

>  <TOX21_RT_HEPG2_FLO_40hr_ctrl_viability>  (16) 
0.0

>  <TOX21_AhR_LUC_Agonist_viability>  (16) 
0.0

>  <TOX21_ERR_viability>  (16) 
0.0

>  <TOX21_p53_BLA_p3_viability>  (16) 
0.0

>  <NVS_NR_bER>  (16) 
1.0

>  <ACEA_AR_agonist_80hr>  (16) 
1.0

>  <ACEA_AR_agonist_AUC_viability>  (16) 
0.0

>  <ACEA_AR_antagonist_80hr>  (16) 
1.0

>  <ACEA_AR_antagonist_AUC_viability>  (16) 
1.0

>  <ACEA_ER_AUC_viability>  (16) 
0.0

>  <APR_HepG2_CellCycleArrest_24h_dn>  (16) 
0.0

>  <APR_HepG2_CellCycleArrest_24h_up>  (16) 
0.0

>  <APR_HepG2_CellCycleArrest_72h_dn>  (16) 
0.0

>  <APR_HepG2_CellCycleArrest_72h_up>  (16) 
1.0

>  <APR_HepG2_CellLoss_24h_dn>  (16) 
0.0

>  <APR_HepG2_CellLoss_24h_up>  (16) 
0.0

>  <APR_HepG2_CellLoss_72h_dn>  (16) 
1.0

>  <APR_HepG2_CellLoss_72h_up>  (16) 
0.0

>  <APR_HepG2_MicrotubuleCSK_24h_dn>  (16) 
0.0

>  <APR_HepG2_MicrotubuleCSK_24h_up>  (16) 
0.0

>  <APR_HepG2_MicrotubuleCSK_72h_dn>  (16) 
0.0

>  <APR_HepG2_MicrotubuleCSK_72h_up>  (16) 
0.0

>  <APR_HepG2_MitoMass_24h_dn>  (16) 
0.0

>  <APR_HepG2_MitoMass_24h_up>  (16) 
0.0

>  <APR_HepG2_MitoMass_72h_dn>  (16) 
0.0

>  <APR_HepG2_MitoMass_72h_up>  (16) 
1.0

>  <APR_HepG2_MitoMembPot_24h_dn>  (16) 
1.0

>  <APR_HepG2_MitoMembPot_24h_up>  (16) 
0.0

>  <APR_HepG2_MitoMembPot_72h_dn>  (16) 
0.0

>  <APR_HepG2_MitoMembPot_72h_up>  (16) 
0.0

>  <APR_HepG2_MitoticArrest_24h_dn>  (16) 
0.0

>  <APR_HepG2_MitoticArrest_24h_up>  (16) 
0.0

>  <APR_HepG2_MitoticArrest_72h_dn>  (16) 
0.0

>  <APR_HepG2_MitoticArrest_72h_up>  (16) 
0.0

>  <APR_HepG2_NuclearSize_24h_dn>  (16) 
0.0

>  <APR_HepG2_NuclearSize_24h_up>  (16) 
0.0

>  <APR_HepG2_NuclearSize_72h_dn>  (16) 
0.0

>  <APR_HepG2_NuclearSize_72h_up>  (16) 
0.0

>  <APR_HepG2_OxidativeStress_24h_dn>  (16) 
0.0

>  <APR_HepG2_OxidativeStress_24h_up>  (16) 
0.0

>  <APR_HepG2_OxidativeStress_72h_dn>  (16) 
0.0

>  <APR_HepG2_OxidativeStress_72h_up>  (16) 
0.0

>  <APR_HepG2_StressKinase_24h_dn>  (16) 
0.0

>  <APR_HepG2_StressKinase_24h_up>  (16) 
0.0

>  <APR_HepG2_StressKinase_72h_dn>  (16) 
0.0

>  <APR_HepG2_StressKinase_72h_up>  (16) 
0.0

>  <APR_HepG2_p53Act_24h_dn>  (16) 
0.0

>  <APR_HepG2_p53Act_24h_up>  (16) 
0.0

>  <APR_HepG2_p53Act_72h_dn>  (16) 
0.0

>  <APR_HepG2_p53Act_72h_up>  (16) 
0.0

>  <ATG_AP_1_CIS_dn>  (16) 
0.0

>  <ATG_AP_1_CIS_up>  (16) 
0.0

>  <ATG_AP_2_CIS_dn>  (16) 
0.0

>  <ATG_AP_2_CIS_up>  (16) 
0.0

>  <ATG_AR_TRANS_dn>  (16) 
0.0

>  <ATG_AR_TRANS_up>  (16) 
0.0

>  <ATG_Ahr_CIS_dn>  (16) 
0.0

>  <ATG_Ahr_CIS_up>  (16) 
0.0

>  <ATG_BRE_CIS_up>  (16) 
0.0

>  <ATG_CMV_CIS_dn>  (16) 
0.0

>  <ATG_CMV_CIS_up>  (16) 
1.0

>  <ATG_CRE_CIS_dn>  (16) 
0.0

>  <ATG_CRE_CIS_up>  (16) 
0.0

>  <ATG_C_EBP_CIS_dn>  (16) 
0.0

>  <ATG_C_EBP_CIS_up>  (16) 
0.0

>  <ATG_DR4_LXR_CIS_dn>  (16) 
0.0

>  <ATG_DR4_LXR_CIS_up>  (16) 
0.0

>  <ATG_DR5_CIS_dn>  (16) 
0.0

>  <ATG_DR5_CIS_up>  (16) 
0.0

>  <ATG_EGR_CIS_dn>  (16) 
0.0

>  <ATG_ERE_CIS_dn>  (16) 
0.0

>  <ATG_ERE_CIS_up>  (16) 
1.0

>  <ATG_ERRa_TRANS_dn>  (16) 
0.0

>  <ATG_ERRa_TRANS_up>  (16) 
0.0

>  <ATG_ERRg_TRANS_dn>  (16) 
0.0

>  <ATG_ERRg_TRANS_up>  (16) 
0.0

>  <ATG_E_Box_CIS_dn>  (16) 
0.0

>  <ATG_E_Box_CIS_up>  (16) 
0.0

>  <ATG_Ets_CIS_dn>  (16) 
0.0

>  <ATG_Ets_CIS_up>  (16) 
0.0

>  <ATG_FXR_TRANS_up>  (16) 
0.0

>  <ATG_FoxA2_CIS_dn>  (16) 
0.0

>  <ATG_FoxA2_CIS_up>  (16) 
0.0

>  <ATG_FoxO_CIS_dn>  (16) 
0.0

>  <ATG_FoxO_CIS_up>  (16) 
0.0

>  <ATG_GAL4_TRANS_dn>  (16) 
0.0

>  <ATG_GAL4_TRANS_up>  (16) 
0.0

>  <ATG_GATA_CIS_dn>  (16) 
0.0

>  <ATG_GATA_CIS_up>  (16) 
0.0

>  <ATG_GLI_CIS_up>  (16) 
0.0

>  <ATG_GRE_CIS_dn>  (16) 
0.0

>  <ATG_GR_TRANS_dn>  (16) 
0.0

>  <ATG_GR_TRANS_up>  (16) 
0.0

>  <ATG_HIF1a_CIS_dn>  (16) 
0.0

>  <ATG_HIF1a_CIS_up>  (16) 
0.0

>  <ATG_HNF4a_TRANS_dn>  (16) 
0.0

>  <ATG_HNF4a_TRANS_up>  (16) 
0.0

>  <ATG_HNF6_CIS_dn>  (16) 
0.0

>  <ATG_HNF6_CIS_up>  (16) 
0.0

>  <ATG_HSE_CIS_dn>  (16) 
0.0

>  <ATG_HSE_CIS_up>  (16) 
1.0

>  <ATG_IR1_CIS_dn>  (16) 
0.0

>  <ATG_IR1_CIS_up>  (16) 
0.0

>  <ATG_ISRE_CIS_dn>  (16) 
0.0

>  <ATG_ISRE_CIS_up>  (16) 
0.0

>  <ATG_LXRb_TRANS_up>  (16) 
0.0

>  <ATG_MRE_CIS_dn>  (16) 
0.0

>  <ATG_MRE_CIS_up>  (16) 
0.0

>  <ATG_M_06_CIS_dn>  (16) 
0.0

>  <ATG_M_06_CIS_up>  (16) 
0.0

>  <ATG_M_06_TRANS_dn>  (16) 
0.0

>  <ATG_M_06_TRANS_up>  (16) 
0.0

>  <ATG_M_19_CIS_dn>  (16) 
0.0

>  <ATG_M_19_CIS_up>  (16) 
0.0

>  <ATG_M_19_TRANS_dn>  (16) 
0.0

>  <ATG_M_19_TRANS_up>  (16) 
0.0

>  <ATG_M_32_CIS_dn>  (16) 
0.0

>  <ATG_M_32_CIS_up>  (16) 
0.0

>  <ATG_M_32_TRANS_dn>  (16) 
0.0

>  <ATG_M_32_TRANS_up>  (16) 
0.0

>  <ATG_M_61_CIS_dn>  (16) 
0.0

>  <ATG_M_61_CIS_up>  (16) 
0.0

>  <ATG_M_61_TRANS_dn>  (16) 
0.0

>  <ATG_M_61_TRANS_up>  (16) 
0.0

>  <ATG_Myb_CIS_dn>  (16) 
0.0

>  <ATG_Myb_CIS_up>  (16) 
0.0

>  <ATG_Myc_CIS_dn>  (16) 
0.0

>  <ATG_Myc_CIS_up>  (16) 
0.0

>  <ATG_NFI_CIS_dn>  (16) 
0.0

>  <ATG_NFI_CIS_up>  (16) 
0.0

>  <ATG_NF_kB_CIS_dn>  (16) 
0.0

>  <ATG_NF_kB_CIS_up>  (16) 
0.0

>  <ATG_NRF1_CIS_dn>  (16) 
1.0

>  <ATG_NRF2_ARE_CIS_dn>  (16) 
0.0

>  <ATG_NRF2_ARE_CIS_up>  (16) 
0.0

>  <ATG_NURR1_TRANS_dn>  (16) 
0.0

>  <ATG_Oct_MLP_CIS_dn>  (16) 
0.0

>  <ATG_Oct_MLP_CIS_up>  (16) 
0.0

>  <ATG_PBREM_CIS_dn>  (16) 
0.0

>  <ATG_PBREM_CIS_up>  (16) 
0.0

>  <ATG_PPARa_TRANS_dn>  (16) 
0.0

>  <ATG_PPARa_TRANS_up>  (16) 
0.0

>  <ATG_PPARd_TRANS_dn>  (16) 
0.0

>  <ATG_PPARd_TRANS_up>  (16) 
0.0

>  <ATG_PPARg_TRANS_dn>  (16) 
0.0

>  <ATG_PPARg_TRANS_up>  (16) 
1.0

>  <ATG_PPRE_CIS_dn>  (16) 
0.0

>  <ATG_PPRE_CIS_up>  (16) 
1.0

>  <ATG_PXRE_CIS_dn>  (16) 
0.0

>  <ATG_PXRE_CIS_up>  (16) 
0.0

>  <ATG_PXR_TRANS_dn>  (16) 
0.0

>  <ATG_PXR_TRANS_up>  (16) 
0.0

>  <ATG_Pax6_CIS_dn>  (16) 
0.0

>  <ATG_Pax6_CIS_up>  (16) 
0.0

>  <ATG_RARa_TRANS_dn>  (16) 
0.0

>  <ATG_RARa_TRANS_up>  (16) 
0.0

>  <ATG_RARb_TRANS_dn>  (16) 
0.0

>  <ATG_RARb_TRANS_up>  (16) 
0.0

>  <ATG_RARg_TRANS_dn>  (16) 
0.0

>  <ATG_RARg_TRANS_up>  (16) 
0.0

>  <ATG_RORE_CIS_dn>  (16) 
0.0

>  <ATG_RORE_CIS_up>  (16) 
0.0

>  <ATG_RORb_TRANS_dn>  (16) 
0.0

>  <ATG_RORb_TRANS_up>  (16) 
0.0

>  <ATG_RORg_TRANS_dn>  (16) 
0.0

>  <ATG_RORg_TRANS_up>  (16) 
0.0

>  <ATG_RXRa_TRANS_dn>  (16) 
0.0

>  <ATG_RXRa_TRANS_up>  (16) 
0.0

>  <ATG_RXRb_TRANS_dn>  (16) 
0.0

>  <ATG_RXRb_TRANS_up>  (16) 
0.0

>  <ATG_SREBP_CIS_dn>  (16) 
0.0

>  <ATG_SREBP_CIS_up>  (16) 
0.0

>  <ATG_STAT3_CIS_dn>  (16) 
0.0

>  <ATG_STAT3_CIS_up>  (16) 
0.0

>  <ATG_Sp1_CIS_dn>  (16) 
0.0

>  <ATG_TAL_CIS_dn>  (16) 
0.0

>  <ATG_TAL_CIS_up>  (16) 
0.0

>  <ATG_TA_CIS_dn>  (16) 
0.0

>  <ATG_TA_CIS_up>  (16) 
0.0

>  <ATG_TCF_b_cat_CIS_dn>  (16) 
1.0

>  <ATG_TCF_b_cat_CIS_up>  (16) 
0.0

>  <ATG_TGFb_CIS_dn>  (16) 
0.0

>  <ATG_THRa1_TRANS_dn>  (16) 
0.0

>  <ATG_THRa1_TRANS_up>  (16) 
0.0

>  <ATG_VDRE_CIS_dn>  (16) 
0.0

>  <ATG_VDRE_CIS_up>  (16) 
0.0

>  <ATG_VDR_TRANS_dn>  (16) 
0.0

>  <ATG_VDR_TRANS_up>  (16) 
0.0

>  <ATG_XTT_Cytotoxicity_up>  (16) 
0.0

>  <ATG_Xbp1_CIS_dn>  (16) 
0.0

>  <ATG_Xbp1_CIS_up>  (16) 
0.0

>  <ATG_p53_CIS_dn>  (16) 
0.0

>  <ATG_p53_CIS_up>  (16) 
0.0

>  <BSK_3C_Eselectin_down>  (16) 
0.0

>  <BSK_3C_Eselectin_up>  (16) 
0.0

>  <BSK_3C_HLADR_up>  (16) 
0.0

>  <BSK_3C_ICAM1_down>  (16) 
0.0

>  <BSK_3C_ICAM1_up>  (16) 
0.0

>  <BSK_3C_IL8_down>  (16) 
0.0

>  <BSK_3C_IL8_up>  (16) 
0.0

>  <BSK_3C_MCP1_down>  (16) 
0.0

>  <BSK_3C_MCP1_up>  (16) 
0.0

>  <BSK_3C_MIG_down>  (16) 
0.0

>  <BSK_3C_MIG_up>  (16) 
0.0

>  <BSK_3C_Proliferation_down>  (16) 
0.0

>  <BSK_3C_Proliferation_up>  (16) 
0.0

>  <BSK_3C_SRB_down>  (16) 
0.0

>  <BSK_3C_SRB_up>  (16) 
0.0

>  <BSK_3C_Thrombomodulin_down>  (16) 
0.0

>  <BSK_3C_Thrombomodulin_up>  (16) 
0.0

>  <BSK_3C_TissueFactor_down>  (16) 
1.0

>  <BSK_3C_TissueFactor_up>  (16) 
0.0

>  <BSK_3C_VCAM1_down>  (16) 
0.0

>  <BSK_3C_VCAM1_up>  (16) 
0.0

>  <BSK_3C_Vis_up>  (16) 
0.0

>  <BSK_3C_uPAR_up>  (16) 
0.0

>  <BSK_4H_Eotaxin3_down>  (16) 
0.0

>  <BSK_4H_Eotaxin3_up>  (16) 
0.0

>  <BSK_4H_MCP1_down>  (16) 
0.0

>  <BSK_4H_MCP1_up>  (16) 
0.0

>  <BSK_4H_Pselectin_down>  (16) 
0.0

>  <BSK_4H_Pselectin_up>  (16) 
0.0

>  <BSK_4H_SRB_down>  (16) 
0.0

>  <BSK_4H_SRB_up>  (16) 
0.0

>  <BSK_4H_VCAM1_down>  (16) 
0.0

>  <BSK_4H_VCAM1_up>  (16) 
0.0

>  <BSK_4H_VEGFRII_down>  (16) 
0.0

>  <BSK_4H_VEGFRII_up>  (16) 
0.0

>  <BSK_4H_uPAR_down>  (16) 
0.0

>  <BSK_4H_uPAR_up>  (16) 
0.0

>  <BSK_BE3C_HLADR_down>  (16) 
1.0

>  <BSK_BE3C_HLADR_up>  (16) 
0.0

>  <BSK_BE3C_IL1a_down>  (16) 
0.0

>  <BSK_BE3C_IL1a_up>  (16) 
0.0

>  <BSK_BE3C_IP10_down>  (16) 
1.0

>  <BSK_BE3C_IP10_up>  (16) 
0.0

>  <BSK_BE3C_MIG_down>  (16) 
0.0

>  <BSK_BE3C_MIG_up>  (16) 
0.0

>  <BSK_BE3C_MMP1_down>  (16) 
0.0

>  <BSK_BE3C_MMP1_up>  (16) 
0.0

>  <BSK_BE3C_PAI1_down>  (16) 
1.0

>  <BSK_BE3C_PAI1_up>  (16) 
0.0

>  <BSK_BE3C_SRB_down>  (16) 
0.0

>  <BSK_BE3C_SRB_up>  (16) 
0.0

>  <BSK_BE3C_TGFb1_down>  (16) 
0.0

>  <BSK_BE3C_TGFb1_up>  (16) 
0.0

>  <BSK_BE3C_tPA_down>  (16) 
0.0

>  <BSK_BE3C_tPA_up>  (16) 
0.0

>  <BSK_BE3C_uPAR_down>  (16) 
0.0

>  <BSK_BE3C_uPAR_up>  (16) 
0.0

>  <BSK_BE3C_uPA_down>  (16) 
0.0

>  <BSK_BE3C_uPA_up>  (16) 
0.0

>  <BSK_CASM3C_HLADR_down>  (16) 
0.0

>  <BSK_CASM3C_HLADR_up>  (16) 
0.0

>  <BSK_CASM3C_IL6_down>  (16) 
0.0

>  <BSK_CASM3C_IL6_up>  (16) 
0.0

>  <BSK_CASM3C_IL8_down>  (16) 
0.0

>  <BSK_CASM3C_IL8_up>  (16) 
0.0

>  <BSK_CASM3C_LDLR_down>  (16) 
0.0

>  <BSK_CASM3C_LDLR_up>  (16) 
0.0

>  <BSK_CASM3C_MCP1_down>  (16) 
0.0

>  <BSK_CASM3C_MCP1_up>  (16) 
0.0

>  <BSK_CASM3C_MCSF_down>  (16) 
0.0

>  <BSK_CASM3C_MCSF_up>  (16) 
0.0

>  <BSK_CASM3C_MIG_down>  (16) 
0.0

>  <BSK_CASM3C_MIG_up>  (16) 
0.0

>  <BSK_CASM3C_Proliferation_down>  (16) 
0.0

>  <BSK_CASM3C_Proliferation_up>  (16) 
0.0

>  <BSK_CASM3C_SAA_down>  (16) 
0.0

>  <BSK_CASM3C_SAA_up>  (16) 
0.0

>  <BSK_CASM3C_SRB_down>  (16) 
0.0

>  <BSK_CASM3C_SRB_up>  (16) 
0.0

>  <BSK_CASM3C_Thrombomodulin_down>  (16) 
0.0

>  <BSK_CASM3C_Thrombomodulin_up>  (16) 
0.0

>  <BSK_CASM3C_TissueFactor_down>  (16) 
0.0

>  <BSK_CASM3C_TissueFactor_up>  (16) 
0.0

>  <BSK_CASM3C_VCAM1_down>  (16) 
0.0

>  <BSK_CASM3C_VCAM1_up>  (16) 
0.0

>  <BSK_CASM3C_uPAR_down>  (16) 
0.0

>  <BSK_CASM3C_uPAR_up>  (16) 
0.0

>  <BSK_KF3CT_ICAM1_down>  (16) 
0.0

>  <BSK_KF3CT_ICAM1_up>  (16) 
0.0

>  <BSK_KF3CT_IL1a_down>  (16) 
0.0

>  <BSK_KF3CT_IL1a_up>  (16) 
0.0

>  <BSK_KF3CT_IP10_down>  (16) 
0.0

>  <BSK_KF3CT_IP10_up>  (16) 
0.0

>  <BSK_KF3CT_MCP1_down>  (16) 
0.0

>  <BSK_KF3CT_MCP1_up>  (16) 
0.0

>  <BSK_KF3CT_MMP9_down>  (16) 
0.0

>  <BSK_KF3CT_MMP9_up>  (16) 
0.0

>  <BSK_KF3CT_SRB_down>  (16) 
0.0

>  <BSK_KF3CT_SRB_up>  (16) 
0.0

>  <BSK_KF3CT_TGFb1_down>  (16) 
0.0

>  <BSK_KF3CT_TGFb1_up>  (16) 
0.0

>  <BSK_KF3CT_TIMP2_down>  (16) 
0.0

>  <BSK_KF3CT_TIMP2_up>  (16) 
0.0

>  <BSK_KF3CT_uPA_down>  (16) 
0.0

>  <BSK_KF3CT_uPA_up>  (16) 
0.0

>  <BSK_LPS_CD40_down>  (16) 
0.0

>  <BSK_LPS_CD40_up>  (16) 
0.0

>  <BSK_LPS_Eselectin_down>  (16) 
0.0

>  <BSK_LPS_Eselectin_up>  (16) 
0.0

>  <BSK_LPS_IL1a_down>  (16) 
0.0

>  <BSK_LPS_IL1a_up>  (16) 
0.0

>  <BSK_LPS_IL8_down>  (16) 
0.0

>  <BSK_LPS_IL8_up>  (16) 
0.0

>  <BSK_LPS_MCP1_down>  (16) 
0.0

>  <BSK_LPS_MCP1_up>  (16) 
0.0

>  <BSK_LPS_MCSF_down>  (16) 
0.0

>  <BSK_LPS_MCSF_up>  (16) 
0.0

>  <BSK_LPS_PGE2_down>  (16) 
0.0

>  <BSK_LPS_PGE2_up>  (16) 
0.0

>  <BSK_LPS_SRB_down>  (16) 
0.0

>  <BSK_LPS_SRB_up>  (16) 
0.0

>  <BSK_LPS_TNFa_down>  (16) 
0.0

>  <BSK_LPS_TNFa_up>  (16) 
0.0

>  <BSK_LPS_TissueFactor_down>  (16) 
0.0

>  <BSK_LPS_TissueFactor_up>  (16) 
0.0

>  <BSK_LPS_VCAM1_down>  (16) 
0.0

>  <BSK_LPS_VCAM1_up>  (16) 
0.0

>  <BSK_SAg_CD38_down>  (16) 
0.0

>  <BSK_SAg_CD38_up>  (16) 
0.0

>  <BSK_SAg_CD40_down>  (16) 
0.0

>  <BSK_SAg_CD40_up>  (16) 
0.0

>  <BSK_SAg_CD69_down>  (16) 
0.0

>  <BSK_SAg_CD69_up>  (16) 
0.0

>  <BSK_SAg_Eselectin_down>  (16) 
0.0

>  <BSK_SAg_Eselectin_up>  (16) 
1.0

>  <BSK_SAg_IL8_down>  (16) 
0.0

>  <BSK_SAg_IL8_up>  (16) 
0.0

>  <BSK_SAg_MCP1_down>  (16) 
0.0

>  <BSK_SAg_MCP1_up>  (16) 
0.0

>  <BSK_SAg_MIG_down>  (16) 
0.0

>  <BSK_SAg_MIG_up>  (16) 
0.0

>  <BSK_SAg_PBMCCytotoxicity_down>  (16) 
0.0

>  <BSK_SAg_PBMCCytotoxicity_up>  (16) 
0.0

>  <BSK_SAg_Proliferation_down>  (16) 
1.0

>  <BSK_SAg_Proliferation_up>  (16) 
0.0

>  <BSK_SAg_SRB_down>  (16) 
0.0

>  <BSK_SAg_SRB_up>  (16) 
0.0

>  <BSK_hDFCGF_CollagenIII_down>  (16) 
0.0

>  <BSK_hDFCGF_CollagenIII_up>  (16) 
0.0

>  <BSK_hDFCGF_EGFR_down>  (16) 
0.0

>  <BSK_hDFCGF_EGFR_up>  (16) 
0.0

>  <BSK_hDFCGF_IL8_down>  (16) 
0.0

>  <BSK_hDFCGF_IL8_up>  (16) 
0.0

>  <BSK_hDFCGF_IP10_down>  (16) 
1.0

>  <BSK_hDFCGF_IP10_up>  (16) 
0.0

>  <BSK_hDFCGF_MCSF_down>  (16) 
0.0

>  <BSK_hDFCGF_MCSF_up>  (16) 
0.0

>  <BSK_hDFCGF_MIG_down>  (16) 
0.0

>  <BSK_hDFCGF_MIG_up>  (16) 
0.0

>  <BSK_hDFCGF_MMP1_down>  (16) 
0.0

>  <BSK_hDFCGF_MMP1_up>  (16) 
0.0

>  <BSK_hDFCGF_PAI1_down>  (16) 
0.0

>  <BSK_hDFCGF_PAI1_up>  (16) 
1.0

>  <BSK_hDFCGF_Proliferation_down>  (16) 
0.0

>  <BSK_hDFCGF_Proliferation_up>  (16) 
0.0

>  <BSK_hDFCGF_SRB_down>  (16) 
0.0

>  <BSK_hDFCGF_SRB_up>  (16) 
0.0

>  <BSK_hDFCGF_TIMP1_down>  (16) 
0.0

>  <BSK_hDFCGF_TIMP1_up>  (16) 
0.0

>  <BSK_hDFCGF_VCAM1_down>  (16) 
0.0

>  <BSK_hDFCGF_VCAM1_up>  (16) 
0.0

>  <NCCT_HEK293T_CellTiterGLO>  (16) 
0.0

>  <NCCT_QuantiLum_inhib_2_dn>  (16) 
1.0

>  <NCCT_QuantiLum_inhib_dn>  (16) 
1.0

>  <NCCT_TPO_AUR_dn>  (16) 
1.0

>  <NHEERL_ZF_144hpf_TERATOSCORE_up>  (16) 
1.0

>  <NVS_ADME_hCYP19A1>  (16) 
1.0

>  <NVS_ADME_hCYP19A1_Activator>  (16) 
0.0

>  <NVS_ADME_hCYP1A2>  (16) 
1.0

>  <NVS_ADME_hCYP1A2_Activator>  (16) 
0.0

>  <NVS_ADME_hCYP2B6>  (16) 
1.0

>  <NVS_ADME_hCYP2B6_Activator>  (16) 
0.0

>  <NVS_ADME_hCYP2C19>  (16) 
1.0

>  <NVS_ADME_hCYP2C19_Activator>  (16) 
0.0

>  <NVS_ADME_hCYP3A4>  (16) 
1.0

>  <NVS_ADME_hCYP3A4_Activator>  (16) 
0.0

>  <NVS_ENZ_hAurA>  (16) 
1.0

>  <NVS_ENZ_hAurA_Activator>  (16) 
0.0

>  <NVS_ENZ_hBACE>  (16) 
0.0

>  <NVS_ENZ_hBACE_Activator>  (16) 
0.0

>  <NVS_ENZ_hCDK2>  (16) 
1.0

>  <NVS_ENZ_hCDK2_Activator>  (16) 
0.0

>  <NVS_ENZ_hCK1D>  (16) 
1.0

>  <NVS_ENZ_hCK1D_Activator>  (16) 
0.0

>  <NVS_ENZ_hCSF1R>  (16) 
1.0

>  <NVS_ENZ_hCSF1R_Activator>  (16) 
0.0

>  <NVS_ENZ_hEGFR>  (16) 
1.0

>  <NVS_ENZ_hEGFR_Activator>  (16) 
0.0

>  <NVS_ENZ_hEphA1>  (16) 
1.0

>  <NVS_ENZ_hEphA1_Activator>  (16) 
0.0

>  <NVS_ENZ_hFGFR1>  (16) 
1.0

>  <NVS_ENZ_hFGFR1_Activator>  (16) 
0.0

>  <NVS_ENZ_hFyn>  (16) 
1.0

>  <NVS_ENZ_hFyn_Activator>  (16) 
0.0

>  <NVS_ENZ_hGSK3b>  (16) 
1.0

>  <NVS_ENZ_hGSK3b_Activator>  (16) 
0.0

>  <NVS_ENZ_hHDAC3>  (16) 
0.0

>  <NVS_ENZ_hHDAC3_Activator>  (16) 
0.0

>  <NVS_ENZ_hInsR>  (16) 
1.0

>  <NVS_ENZ_hInsR_Activator>  (16) 
0.0

>  <NVS_ENZ_hJak2>  (16) 
1.0

>  <NVS_ENZ_hJak2_Activator>  (16) 
0.0

>  <NVS_ENZ_hLynA>  (16) 
0.0

>  <NVS_ENZ_hLynA_Activator>  (16) 
0.0

>  <NVS_ENZ_hMsk1>  (16) 
1.0

>  <NVS_ENZ_hMsk1_Activator>  (16) 
0.0

>  <NVS_ENZ_hPDE5>  (16) 
1.0

>  <NVS_ENZ_hPDE5_Activator>  (16) 
0.0

>  <NVS_ENZ_hPKA>  (16) 
0.0

>  <NVS_ENZ_hPKA_Activator>  (16) 
0.0

>  <NVS_ENZ_hRAF1>  (16) 
0.0

>  <NVS_ENZ_hRAF1_Activator>  (16) 
0.0

>  <NVS_ENZ_hSRC>  (16) 
1.0

>  <NVS_ENZ_hSRC_Activator>  (16) 
0.0

>  <NVS_ENZ_hTrkA>  (16) 
1.0

>  <NVS_ENZ_hTrkA_Activator>  (16) 
0.0

>  <NVS_ENZ_hVEGFR1>  (16) 
1.0

>  <NVS_ENZ_hVEGFR1_Activator>  (16) 
0.0

>  <NVS_ENZ_hVEGFR2>  (16) 
1.0

>  <NVS_ENZ_hVEGFR2_Activator>  (16) 
0.0

>  <NVS_ENZ_rMAOAC>  (16) 
1.0

>  <NVS_ENZ_rMAOAC_Activator>  (16) 
0.0

>  <NVS_ENZ_rMAOAP>  (16) 
1.0

>  <NVS_ENZ_rMAOAP_Activator>  (16) 
0.0

>  <NVS_ENZ_rMAOBC>  (16) 
1.0

>  <NVS_ENZ_rMAOBC_Activator>  (16) 
0.0

>  <NVS_ENZ_rMAOBP>  (16) 
1.0

>  <NVS_ENZ_rMAOBP_Activator>  (16) 
0.0

>  <NVS_GPCR_bAdoR_NonSelective>  (16) 
1.0

>  <NVS_GPCR_gLTD4>  (16) 
0.0

>  <NVS_GPCR_h5HT6>  (16) 
1.0

>  <NVS_GPCR_hAdoRA1>  (16) 
1.0

>  <NVS_GPCR_hAdoRA2a>  (16) 
1.0

>  <NVS_GPCR_hDRD4.4>  (16) 
0.0

>  <NVS_GPCR_hOpiate_D1>  (16) 
1.0

>  <NVS_GPCR_p5HT2C>  (16) 
1.0

>  <NVS_GPCR_rTRH>  (16) 
0.0

>  <NVS_GPCR_rmMGluR1>  (16) 
0.0

>  <NVS_IC_rCaDHPRCh_L>  (16) 
0.0

>  <NVS_LGIC_rNNR_BungSens>  (16) 
0.0

>  <NVS_NR_bPR>  (16) 
1.0

>  <NVS_NR_hPPARg>  (16) 
0.0

>  <NVS_NR_hRARa_Agonist>  (16) 
1.0

>  <OT_AR_ARSRC1_0480>  (16) 
1.0

>  <OT_AR_ARSRC1_0960>  (16) 
1.0

>  <OT_ER_ERaERa_0480>  (16) 
1.0

>  <OT_ER_ERaERa_1440>  (16) 
1.0

>  <OT_ER_ERaERb_0480>  (16) 
1.0

>  <OT_ER_ERbERb_0480>  (16) 
1.0

>  <OT_ER_ERbERb_1440>  (16) 
1.0

>  <OT_ERa_EREGFP_0480>  (16) 
1.0

>  <TOX21_AP1_BLA_Agonist_ch1>  (16) 
0.0

>  <TOX21_AP1_BLA_Agonist_ch2>  (16) 
0.0

>  <TOX21_AP1_BLA_Agonist_ratio>  (16) 
0.0

>  <TOX21_AP1_BLA_Agonist_viability>  (16) 
0.0

>  <TOX21_ARE_BLA_Agonist_ch1>  (16) 
0.0

>  <TOX21_ARE_BLA_Agonist_ch2>  (16) 
1.0

>  <TOX21_ARE_BLA_agonist_viability>  (16) 
0.0

>  <TOX21_AR_BLA_Agonist_ch1>  (16) 
0.0

>  <TOX21_AR_BLA_Agonist_ch2>  (16) 
0.0

>  <TOX21_AR_BLA_Agonist_ratio>  (16) 
0.0

>  <TOX21_AR_BLA_Antagonist_ch1>  (16) 
1.0

>  <TOX21_AR_BLA_Antagonist_ch2>  (16) 
1.0

>  <TOX21_AR_BLA_Antagonist_ratio>  (16) 
1.0

>  <TOX21_AR_BLA_Antagonist_viability>  (16) 
0.0

>  <TOX21_AR_LUC_MDAKB2_Agonist>  (16) 
0.0

>  <TOX21_AR_LUC_MDAKB2_Agonist_3uM_Nilutamide>  (16) 
1.0

>  <TOX21_AR_LUC_MDAKB2_Agonist_3uM_Nilutamide_viability>  (16) 
0.0

>  <TOX21_AR_LUC_MDAKB2_Antagonist_0.5nM_R1881>  (16) 
1.0

>  <TOX21_AR_LUC_MDAKB2_Antagonist_0.5nM_R1881_viability>  (16) 
0.0

>  <TOX21_AR_LUC_MDAKB2_Antagonist_10nM_R1881>  (16) 
0.0

>  <TOX21_AR_LUC_MDAKB2_Antagonist_10nM_R1881_viability>  (16) 
0.0

>  <TOX21_AhR_LUC_Agonist>  (16) 
1.0

>  <TOX21_Aromatase_Inhibition>  (16) 
1.0

>  <TOX21_Aromatase_Inhibition_viability>  (16) 
0.0

>  <TOX21_AutoFluor_HEK293_Cell_blue>  (16) 
0.0

>  <TOX21_AutoFluor_HEK293_Cell_green>  (16) 
0.0

>  <TOX21_AutoFluor_HEK293_Cell_red>  (16) 
0.0

>  <TOX21_AutoFluor_HEK293_Media_blue>  (16) 
0.0

>  <TOX21_AutoFluor_HEK293_Media_green>  (16) 
0.0

>  <TOX21_AutoFluor_HEK293_Media_red>  (16) 
0.0

>  <TOX21_AutoFluor_HEPG2_Cell_blue>  (16) 
0.0

>  <TOX21_AutoFluor_HEPG2_Cell_green>  (16) 
0.0

>  <TOX21_AutoFluor_HEPG2_Cell_red>  (16) 
0.0

>  <TOX21_AutoFluor_HEPG2_Media_blue>  (16) 
0.0

>  <TOX21_AutoFluor_HEPG2_Media_green>  (16) 
0.0

>  <TOX21_AutoFluor_HEPG2_Media_red>  (16) 
0.0

>  <TOX21_CAR_Agonist>  (16) 
0.0

>  <TOX21_CAR_Antagonist>  (16) 
0.0

>  <TOX21_CAR_Antagonist_viability>  (16) 
0.0

>  <TOX21_CASP3_CHO>  (16) 
0.0

>  <TOX21_CASP3_CHO_viability>  (16) 
1.0

>  <TOX21_CASP3_HEPG2>  (16) 
0.0

>  <TOX21_CASP3_HEPG2_viability>  (16) 
0.0

>  <TOX21_DT40>  (16) 
1.0

>  <TOX21_DT40_100>  (16) 
1.0

>  <TOX21_DT40_657>  (16) 
1.0

>  <TOX21_ELG1_LUC_Agonist>  (16) 
0.0

>  <TOX21_ELG1_LUC_Agonist_viability>  (16) 
0.0

>  <TOX21_ERR_Agonist>  (16) 
0.0

>  <TOX21_ERR_Antagonist>  (16) 
0.0

>  <TOX21_ERa_BLA_Agonist_ch1>  (16) 
1.0

>  <TOX21_ERa_BLA_Agonist_ch2>  (16) 
1.0

>  <TOX21_ERa_BLA_Agonist_ratio>  (16) 
1.0

>  <TOX21_ERa_BLA_Antagonist_ch1>  (16) 
0.0

>  <TOX21_ERa_BLA_Antagonist_ch2>  (16) 
0.0

>  <TOX21_ERa_BLA_Antagonist_ratio>  (16) 
0.0

>  <TOX21_ERa_BLA_Antagonist_viability>  (16) 
0.0

>  <TOX21_ERa_LUC_VM7_Agonist>  (16) 
1.0

>  <TOX21_ERa_LUC_VM7_Agonist_10nM_ICI182780>  (16) 
1.0

>  <TOX21_ERa_LUC_VM7_Agonist_10nM_ICI182780_viability>  (16) 
0.0

>  <TOX21_ERa_LUC_VM7_Antagonist_0.1nM_E2>  (16) 
0.0

>  <TOX21_ERa_LUC_VM7_Antagonist_0.1nM_E2_viability>  (16) 
0.0

>  <TOX21_ERa_LUC_VM7_Antagonist_0.5nM_E2>  (16) 
0.0

>  <TOX21_ERa_LUC_VM7_Antagonist_0.5nM_E2_viability>  (16) 
0.0

>  <TOX21_ERb_BLA_Agonist_ch1>  (16) 
0.0

>  <TOX21_ERb_BLA_Agonist_ch2>  (16) 
1.0

>  <TOX21_ERb_BLA_Agonist_ratio>  (16) 
1.0

>  <TOX21_ERb_BLA_Agonist_viability>  (16) 
0.0

>  <TOX21_ERb_BLA_Antagonist_ch1>  (16) 
0.0

>  <TOX21_ERb_BLA_Antagonist_ch2>  (16) 
0.0

>  <TOX21_ERb_BLA_Antagonist_ratio>  (16) 
0.0

>  <TOX21_ERb_BLA_Antagonist_viability>  (16) 
0.0

>  <TOX21_ESRE_BLA_ch1>  (16) 
0.0

>  <TOX21_ESRE_BLA_ch2>  (16) 
0.0

>  <TOX21_ESRE_BLA_ratio>  (16) 
0.0

>  <TOX21_ESRE_BLA_viability>  (16) 
0.0

>  <TOX21_FXR_BLA_Antagonist_ch1>  (16) 
0.0

>  <TOX21_FXR_BLA_Antagonist_ch2>  (16) 
0.0

>  <TOX21_FXR_BLA_agonist_ch1>  (16) 
0.0

>  <TOX21_FXR_BLA_agonist_ch2>  (16) 
0.0

>  <TOX21_FXR_BLA_agonist_ratio>  (16) 
0.0

>  <TOX21_FXR_BLA_agonist_viability>  (16) 
0.0

>  <TOX21_FXR_BLA_antagonist_ratio>  (16) 
1.0

>  <TOX21_FXR_BLA_antagonist_viability>  (16) 
0.0

>  <TOX21_GR_BLA_Agonist_ch1>  (16) 
0.0

>  <TOX21_GR_BLA_Agonist_ch2>  (16) 
0.0

>  <TOX21_GR_BLA_Agonist_ratio>  (16) 
0.0

>  <TOX21_GR_BLA_Antagonist_ch1>  (16) 
0.0

>  <TOX21_GR_BLA_Antagonist_ch2>  (16) 
1.0

>  <TOX21_GR_BLA_Antagonist_ratio>  (16) 
1.0

>  <TOX21_GR_BLA_Antagonist_viability>  (16) 
0.0

>  <TOX21_H2AX_HTRF_CHO_Agonist_ch1>  (16) 
0.0

>  <TOX21_H2AX_HTRF_CHO_Agonist_ch2>  (16) 
0.0

>  <TOX21_H2AX_HTRF_CHO_Agonist_ratio>  (16) 
0.0

>  <TOX21_H2AX_HTRF_CHO_viability>  (16) 
0.0

>  <TOX21_HDAC_Inhibition>  (16) 
1.0

>  <TOX21_HDAC_Inhibition_viability>  (16) 
0.0

>  <TOX21_HRE_BLA_Agonist_ch1>  (16) 
0.0

>  <TOX21_HRE_BLA_Agonist_ch2>  (16) 
0.0

>  <TOX21_HRE_BLA_Agonist_ratio>  (16) 
0.0

>  <TOX21_HRE_BLA_Agonist_viability>  (16) 
0.0

>  <TOX21_HSE_BLA_agonist_ch1>  (16) 
0.0

>  <TOX21_HSE_BLA_agonist_ch2>  (16) 
1.0

>  <TOX21_HSE_BLA_agonist_ratio>  (16) 
1.0

>  <TOX21_HSE_BLA_agonist_viability>  (16) 
0.0

>  <TOX21_LUC_Biochem>  (16) 
0.0

>  <TOX21_MMP_fitc>  (16) 
1.0

>  <TOX21_MMP_ratio_down>  (16) 
1.0

>  <TOX21_MMP_ratio_up>  (16) 
0.0

>  <TOX21_MMP_rhodamine>  (16) 
1.0

>  <TOX21_MMP_viability>  (16) 
1.0

>  <TOX21_NFkB_BLA_agonist_ch1>  (16) 
0.0

>  <TOX21_NFkB_BLA_agonist_ch2>  (16) 
0.0

>  <TOX21_NFkB_BLA_agonist_ratio>  (16) 
0.0

>  <TOX21_NFkB_BLA_agonist_viability>  (16) 
0.0

>  <TOX21_PGC_ERR_Agonist>  (16) 
1.0

>  <TOX21_PGC_ERR_Antagonist>  (16) 
0.0

>  <TOX21_PGC_ERR_viability>  (16) 
0.0

>  <TOX21_PPARd_BLA_Agonist_viability>  (16) 
0.0

>  <TOX21_PPARd_BLA_Antagonist_ch1>  (16) 
0.0

>  <TOX21_PPARd_BLA_Antagonist_ch2>  (16) 
0.0

>  <TOX21_PPARd_BLA_agonist_ch1>  (16) 
0.0

>  <TOX21_PPARd_BLA_agonist_ch2>  (16) 
0.0

>  <TOX21_PPARd_BLA_agonist_ratio>  (16) 
0.0

>  <TOX21_PPARd_BLA_antagonist_ratio>  (16) 
1.0

>  <TOX21_PPARd_BLA_antagonist_viability>  (16) 
0.0

>  <TOX21_PPARg_BLA_Agonist_ch1>  (16) 
0.0

>  <TOX21_PPARg_BLA_Agonist_ch2>  (16) 
0.0

>  <TOX21_PPARg_BLA_Agonist_ratio>  (16) 
0.0

>  <TOX21_PPARg_BLA_Antagonist_ch1>  (16) 
0.0

>  <TOX21_PPARg_BLA_Antagonist_ch2>  (16) 
0.0

>  <TOX21_PPARg_BLA_antagonist_ratio>  (16) 
1.0

>  <TOX21_PPARg_BLA_antagonist_viability>  (16) 
0.0

>  <TOX21_PR_BLA_Agonist_ch1>  (16) 
0.0

>  <TOX21_PR_BLA_Agonist_ch2>  (16) 
0.0

>  <TOX21_PR_BLA_Agonist_ratio>  (16) 
0.0

>  <TOX21_PR_BLA_Antagonist_ch1>  (16) 
1.0

>  <TOX21_PR_BLA_Antagonist_ch2>  (16) 
1.0

>  <TOX21_PR_BLA_Antagonist_ratio>  (16) 
1.0

>  <TOX21_PR_BLA_Antagonist_viability>  (16) 
0.0

>  <TOX21_PR_BLA_Followup_Agonist_ch1>  (16) 
0.0

>  <TOX21_PR_BLA_Followup_Agonist_ch2>  (16) 
0.0

>  <TOX21_PR_BLA_Followup_Agonist_ratio>  (16) 
0.0

>  <TOX21_PR_BLA_Followup_Agonist_viability>  (16) 
0.0

>  <TOX21_PR_BLA_Followup_Antagonist_ch1>  (16) 
0.0

>  <TOX21_PR_BLA_Followup_Antagonist_ch2>  (16) 
1.0

>  <TOX21_PR_BLA_Followup_Antagonist_ratio>  (16) 
1.0

>  <TOX21_PR_BLA_Followup_Antagonist_viability>  (16) 
0.0

>  <TOX21_PR_LUC_Followup_Agonist>  (16) 
0.0

>  <TOX21_PR_LUC_Followup_Agonist_viability>  (16) 
0.0

>  <TOX21_PR_LUC_Followup_Antagonist>  (16) 
1.0

>  <TOX21_PR_LUC_Followup_Antagonist_viability>  (16) 
0.0

>  <TOX21_PXR_Agonist>  (16) 
0.0

>  <TOX21_PXR_viability>  (16) 
1.0

>  <TOX21_RAR_LUC_Agonist>  (16) 
0.0

>  <TOX21_RAR_LUC_Agonist_viability>  (16) 
0.0

>  <TOX21_RAR_LUC_Antagonist_viability>  (16) 
0.0

>  <TOX21_RORg_LUC_CHO_Antagonist>  (16) 
0.0

>  <TOX21_RORg_LUC_CHO_Antagonist_viability>  (16) 
1.0

>  <TOX21_RT_HEK293_FLO_00hr_viability>  (16) 
0.0

>  <TOX21_RT_HEK293_FLO_08hr_viability>  (16) 
1.0

>  <TOX21_RT_HEK293_FLO_16hr_viability>  (16) 
0.0

>  <TOX21_RT_HEK293_FLO_24hr_viability>  (16) 
0.0

>  <TOX21_RT_HEK293_FLO_32hr_viability>  (16) 
0.0

>  <TOX21_RT_HEK293_FLO_40hr_viability>  (16) 
0.0

>  <TOX21_RT_HEK293_GLO_00hr_viability>  (16) 
0.0

>  <TOX21_RT_HEK293_GLO_08hr_viability>  (16) 
0.0

>  <TOX21_RT_HEK293_GLO_16hr_viability>  (16) 
0.0

>  <TOX21_RT_HEK293_GLO_24hr_viability>  (16) 
0.0

>  <TOX21_RT_HEK293_GLO_32hr_viability>  (16) 
0.0

>  <TOX21_RT_HEK293_GLO_40hr_viability>  (16) 
0.0

>  <TOX21_RT_HEPG2_FLO_00hr_ctrl_viability>  (16) 
0.0

>  <TOX21_RT_HEPG2_FLO_08hr_viability>  (16) 
0.0

>  <TOX21_RT_HEPG2_FLO_16hr_ctrl_viability>  (16) 
0.0

>  <TOX21_RT_HEPG2_FLO_24hr_viability>  (16) 
0.0

>  <TOX21_RT_HEPG2_FLO_32hr_ctrl_viability>  (16) 
0.0

>  <TOX21_RT_HEPG2_GLO_00hr_ctrl_viability>  (16) 
0.0

>  <TOX21_RT_HEPG2_GLO_08hr_ctrl_viability>  (16) 
0.0

>  <TOX21_RT_HEPG2_GLO_16hr_ctrl_viability>  (16) 
0.0

>  <TOX21_RT_HEPG2_GLO_24hr_ctrl_viability>  (16) 
0.0

>  <TOX21_RT_HEPG2_GLO_32hr_ctrl_viability>  (16) 
0.0

>  <TOX21_RT_HEPG2_GLO_40hr_viability>  (16) 
0.0

>  <TOX21_RXR_BLA_Agonist_ch1>  (16) 
0.0

>  <TOX21_RXR_BLA_Agonist_ch2>  (16) 
0.0

>  <TOX21_RXR_BLA_Agonist_ratio>  (16) 
0.0

>  <TOX21_RXR_BLA_Agonist_viability>  (16) 
0.0

>  <TOX21_SBE_BLA_Agonist_ch1>  (16) 
0.0

>  <TOX21_SBE_BLA_Agonist_ch2>  (16) 
0.0

>  <TOX21_SBE_BLA_Agonist_ratio>  (16) 
0.0

>  <TOX21_SBE_BLA_Agonist_viability>  (16) 
0.0

>  <TOX21_SBE_BLA_Antagonist_ch1>  (16) 
0.0

>  <TOX21_SBE_BLA_Antagonist_ch2>  (16) 
0.0

>  <TOX21_SBE_BLA_Antagonist_ratio>  (16) 
1.0

>  <TOX21_SBE_BLA_Antagonist_viability>  (16) 
0.0

>  <TOX21_SSH_3T3_GLI3_Agonist>  (16) 
0.0

>  <TOX21_SSH_3T3_GLI3_Agonist_viability>  (16) 
0.0

>  <TOX21_SSH_3T3_GLI3_Antagonist>  (16) 
1.0

>  <TOX21_SSH_3T3_GLI3_Antagonist_viability>  (16) 
1.0

>  <TOX21_TRHR_HEK293_Agonist>  (16) 
0.0

>  <TOX21_TRHR_HEK293_Antagonist>  (16) 
0.0

>  <TOX21_TR_LUC_GH3_Agonist>  (16) 
0.0

>  <TOX21_TR_LUC_GH3_Antagonist>  (16) 
1.0

>  <TOX21_TR_LUC_GH3_Antagonist_viability>  (16) 
0.0

>  <TOX21_TSHR_Agonist_ch2>  (16) 
0.0

>  <TOX21_TSHR_Antagonist_ch2>  (16) 
0.0

>  <TOX21_TSHR_Antagonist_ratio>  (16) 
0.0

>  <TOX21_TSHR_HTRF_Agonist_ch1>  (16) 
0.0

>  <TOX21_TSHR_HTRF_Antagonist_ch1>  (16) 
0.0

>  <TOX21_TSHR_wt_HTRF_ch1>  (16) 
0.0

>  <TOX21_TSHR_wt_ch2>  (16) 
0.0

>  <TOX21_TSHR_wt_ratio>  (16) 
0.0

>  <TOX21_VDR_BLA_Agonist_viability>  (16) 
0.0

>  <TOX21_VDR_BLA_Antagonist_ch1>  (16) 
0.0

>  <TOX21_VDR_BLA_Antagonist_ch2>  (16) 
0.0

>  <TOX21_VDR_BLA_agonist_ch1>  (16) 
0.0

>  <TOX21_VDR_BLA_agonist_ch2>  (16) 
0.0

>  <TOX21_VDR_BLA_agonist_ratio>  (16) 
0.0

>  <TOX21_VDR_BLA_antagonist_ratio>  (16) 
0.0

>  <TOX21_VDR_BLA_antagonist_viability>  (16) 
0.0

>  <TOX21_p53_BLA_p1_ch1>  (16) 
0.0

>  <TOX21_p53_BLA_p1_ch2>  (16) 
1.0

>  <TOX21_p53_BLA_p1_ratio>  (16) 
1.0

>  <TOX21_p53_BLA_p1_viability>  (16) 
0.0

>  <TOX21_p53_BLA_p2_ch1>  (16) 
0.0

>  <TOX21_p53_BLA_p2_ch2>  (16) 
1.0

>  <TOX21_p53_BLA_p2_ratio>  (16) 
1.0

>  <TOX21_p53_BLA_p2_viability>  (16) 
0.0

>  <TOX21_p53_BLA_p3_ch1>  (16) 
0.0

>  <TOX21_p53_BLA_p3_ch2>  (16) 
1.0

>  <TOX21_p53_BLA_p3_ratio>  (16) 
1.0

>  <TOX21_p53_BLA_p4_ch1>  (16) 
0.0

>  <TOX21_p53_BLA_p4_ch2>  (16) 
1.0

>  <TOX21_p53_BLA_p4_ratio>  (16) 
1.0

>  <TOX21_p53_BLA_p4_viability>  (16) 
0.0

>  <TOX21_p53_BLA_p5_ch1>  (16) 
0.0

>  <TOX21_p53_BLA_p5_ch2>  (16) 
1.0

>  <TOX21_p53_BLA_p5_ratio>  (16) 
1.0

>  <TOX21_p53_BLA_p5_viability>  (16) 
0.0

>  <Tanguay_ZF_120hpf_AXIS_up>  (16) 
0.0

>  <Tanguay_ZF_120hpf_ActivityScore>  (16) 
0.0

>  <Tanguay_ZF_120hpf_BRAI_up>  (16) 
0.0

>  <Tanguay_ZF_120hpf_CFIN_up>  (16) 
0.0

>  <Tanguay_ZF_120hpf_CIRC_up>  (16) 
0.0

>  <Tanguay_ZF_120hpf_EYE_up>  (16) 
0.0

>  <Tanguay_ZF_120hpf_JAW_up>  (16) 
0.0

>  <Tanguay_ZF_120hpf_MORT_up>  (16) 
0.0

>  <Tanguay_ZF_120hpf_NC_up>  (16) 
0.0

>  <Tanguay_ZF_120hpf_OTIC_up>  (16) 
0.0

>  <Tanguay_ZF_120hpf_PE_up>  (16) 
0.0

>  <Tanguay_ZF_120hpf_PFIN_up>  (16) 
0.0

>  <Tanguay_ZF_120hpf_PIG_up>  (16) 
0.0

>  <Tanguay_ZF_120hpf_SNOU_up>  (16) 
0.0

>  <Tanguay_ZF_120hpf_SOMI_up>  (16) 
0.0

>  <Tanguay_ZF_120hpf_SWIM_up>  (16) 
0.0

>  <Tanguay_ZF_120hpf_TRUN_up>  (16) 
0.0

>  <Tanguay_ZF_120hpf_TR_up>  (16) 
0.0

>  <Tanguay_ZF_120hpf_YSE_up>  (16) 
0.0

>  <UPITT_HCI_U2OS_AR_TIF2_Nucleoli_Agonist>  (16) 
0.0

>  <UPITT_HCI_U2OS_AR_TIF2_Nucleoli_Antagonist>  (16) 
1.0

>  <UPITT_HCI_U2OS_AR_TIF2_Nucleoli_Cytoplasm_Ratio_Agonist>  (16) 
0.0

>  <UPITT_HCI_U2OS_AR_TIF2_Nucleoli_Cytoplasm_Ratio_Antagonist>  (16) 
1.0

>  <NVS_NR_mERa>  (16) 
1

$$$$

     RDKit          3D

 15 15  0  0  0  0  0  0  0  0999 V2000
    0.0000    0.0000    0.0000 C   0  0  0  0  0  0  0  0  0  0  0  0
    0.0000    0.0000    0.0000 C   0  0  0  0  0  0  0  0  0  0  0  0
    0.0000    0.0000    0.0000 C   0  0  0  0  0  0  0  0  0  0  0  0
    0.0000    0.0000    0.0000 C   0  0  0  0  0  0  0  0  0  0  0  0
    0.0000    0.0000    0.0000 C   0  0  0  0  0  0  0  0  0  0  0  0
    0.0000    0.0000    0.0000 C   0  0  0  0  0  0  0  0  0  0  0  0
    0.0000    0.0000    0.0000 C   0  0  0  0  0  0  0  0  0  0  0  0
    0.0000    0.0000    0.0000 C   0  0  0  0  0  0  0  0  0  0  0  0
    0.0000    0.0000    0.0000 C   0  0  0  0  0  0  0  0  0  0  0  0
    0.0000    0.0000    0.0000 C   0  0  0  0  0  0  0  0  0  0  0  0
    0.0000    0.0000    0.0000 C   0  0  0  0  0  0  0  0  0  0  0  0
    0.0000    0.0000    0.0000 C   0  0  0  0  0  0  0  0  0  0  0  0
    0.0000    0.0000    0.0000 C   0  0  0  0  0  0  0  0  0  0  0  0
    0.0000    0.0000    0.0000 C   0  0  0  0  0  0  0  0  0  0  0  0
    0.0000    0.0000    0.0000 O   0  0  0  0  0  0  0  0  0  0  0  0
  1  2  1  0
  2  3  1  0
  2  4  1  0
  2  5  1  0
  5  6  1  0
  6  7  1  0
  6  8  1  0
  6  9  1  0
  9 10  2  0
 10 11  1  0
 11 12  2  0
 12 13  1  0
 13 14  2  0
 12 15  1  0
 14  9  1  0
M  END
>  <CASRN>  (17) 
140-66-9

>  <Name>  (17) 
4-(1,1,3,3-Tetramethylbutyl)phenol

>  <Active>  (17) 
3

>  <Inactive>  (17) 
1

>  <Bioactivity>  (17) 
Active

>  <Min LEL>  (17) 
56.0

>  <Max HDT>  (17) 
250.0

>  <Class>  (17) 
1

>  <Code>  (17) 
C140669

>  <NVS_NR_hER>  (17) 
1.0

>  <NVS_NR_hAR>  (17) 
1.0

>  <NVS_NR_hGR>  (17) 
1.0

>  <NVS_NR_hPR>  (17) 
1.0

>  <NVS_NR_rAR>  (17) 
1.0

>  <OT_ER_ERaERb_1440>  (17) 
1.0

>  <OT_FXR_FXRSRC1_0480>  (17) 
0.0

>  <OT_PPARg_PPARgSRC1_1440>  (17) 
0.0

>  <OT_FXR_FXRSRC1_1440>  (17) 
0.0

>  <OT_NURR1_NURR1RXRa_0480>  (17) 
1.0

>  <OT_NURR1_NURR1RXRa_1440>  (17) 
1.0

>  <OT_PPARg_PPARgSRC1_0480>  (17) 
0.0

>  <OT_AR_ARELUC_AG_1440>  (17) 
0.0

>  <OT_ERa_EREGFP_0120>  (17) 
1.0

>  <BSK_3C_HLADR_down>  (17) 
1.0

>  <BSK_3C_Vis_down>  (17) 
1.0

>  <BSK_3C_uPAR_down>  (17) 
1.0

>  <ATG_CAR_TRANS_up>  (17) 
0.0

>  <ATG_E2F_CIS_dn>  (17) 
0.0

>  <ATG_EGR_CIS_up>  (17) 
0.0

>  <ATG_ERa_TRANS_dn>  (17) 
0.0

>  <ATG_ERa_TRANS_up>  (17) 
1.0

>  <ATG_FXR_TRANS_dn>  (17) 
0.0

>  <ATG_GLI_CIS_dn>  (17) 
0.0

>  <ATG_GRE_CIS_up>  (17) 
0.0

>  <ATG_LXRa_TRANS_dn>  (17) 
0.0

>  <ATG_LXRa_TRANS_up>  (17) 
0.0

>  <ATG_NRF1_CIS_up>  (17) 
0.0

>  <ATG_NURR1_TRANS_up>  (17) 
0.0

>  <ATG_Sox_CIS_dn>  (17) 
0.0

>  <ATG_Sox_CIS_up>  (17) 
0.0

>  <ATG_Sp1_CIS_up>  (17) 
0.0

>  <ATG_TGFb_CIS_up>  (17) 
0.0

>  <TOX21_ARE_BLA_agonist_ratio>  (17) 
1.0

>  <TOX21_RAR_LUC_Antagonist>  (17) 
1.0

>  <ATG_LXRb_TRANS_dn>  (17) 
0.0

>  <ATG_CAR_TRANS_dn>  (17) 
0.0

>  <ATG_BRE_CIS_dn>  (17) 
0.0

>  <ATG_E2F_CIS_up>  (17) 
0.0

>  <TOX21_TSHR_Agonist_ratio>  (17) 
1.0

>  <ACEA_ER_80hr>  (17) 
1.0

>  <TOX21_CAR_Agonist_viabillity>  (17) 
1.0

>  <TOX21_PR_BLA_Agonist_viability>  (17) 
1.0

>  <TOX21_RT_HEPG2_FLO_40hr_ctrl_viability>  (17) 
1.0

>  <TOX21_AhR_LUC_Agonist_viability>  (17) 
0.0

>  <TOX21_ERR_viability>  (17) 
1.0

>  <TOX21_p53_BLA_p3_viability>  (17) 
1.0

>  <NVS_NR_cAR>  (17) 
1.0

>  <NVS_NR_bER>  (17) 
1.0

>  <ACEA_AR_agonist_80hr>  (17) 
0.0

>  <ACEA_AR_agonist_AUC_viability>  (17) 
1.0

>  <ACEA_AR_antagonist_80hr>  (17) 
1.0

>  <ACEA_AR_antagonist_AUC_viability>  (17) 
1.0

>  <ACEA_ER_AUC_viability>  (17) 
1.0

>  <APR_HepG2_CellCycleArrest_24h_dn>  (17) 
0.0

>  <APR_HepG2_CellCycleArrest_24h_up>  (17) 
1.0

>  <APR_HepG2_CellCycleArrest_72h_dn>  (17) 
1.0

>  <APR_HepG2_CellCycleArrest_72h_up>  (17) 
0.0

>  <APR_HepG2_CellLoss_24h_dn>  (17) 
1.0

>  <APR_HepG2_CellLoss_24h_up>  (17) 
0.0

>  <APR_HepG2_CellLoss_72h_dn>  (17) 
1.0

>  <APR_HepG2_CellLoss_72h_up>  (17) 
0.0

>  <APR_HepG2_MicrotubuleCSK_24h_dn>  (17) 
0.0

>  <APR_HepG2_MicrotubuleCSK_24h_up>  (17) 
0.0

>  <APR_HepG2_MicrotubuleCSK_72h_dn>  (17) 
0.0

>  <APR_HepG2_MicrotubuleCSK_72h_up>  (17) 
0.0

>  <APR_HepG2_MitoMass_24h_dn>  (17) 
0.0

>  <APR_HepG2_MitoMass_24h_up>  (17) 
0.0

>  <APR_HepG2_MitoMass_72h_dn>  (17) 
0.0

>  <APR_HepG2_MitoMass_72h_up>  (17) 
0.0

>  <APR_HepG2_MitoMembPot_24h_dn>  (17) 
1.0

>  <APR_HepG2_MitoMembPot_24h_up>  (17) 
0.0

>  <APR_HepG2_MitoMembPot_72h_dn>  (17) 
0.0

>  <APR_HepG2_MitoMembPot_72h_up>  (17) 
0.0

>  <APR_HepG2_MitoticArrest_24h_dn>  (17) 
0.0

>  <APR_HepG2_MitoticArrest_24h_up>  (17) 
1.0

>  <APR_HepG2_MitoticArrest_72h_dn>  (17) 
0.0

>  <APR_HepG2_MitoticArrest_72h_up>  (17) 
1.0

>  <APR_HepG2_NuclearSize_24h_dn>  (17) 
1.0

>  <APR_HepG2_NuclearSize_24h_up>  (17) 
0.0

>  <APR_HepG2_NuclearSize_72h_dn>  (17) 
0.0

>  <APR_HepG2_NuclearSize_72h_up>  (17) 
0.0

>  <APR_HepG2_OxidativeStress_24h_dn>  (17) 
0.0

>  <APR_HepG2_OxidativeStress_24h_up>  (17) 
1.0

>  <APR_HepG2_OxidativeStress_72h_dn>  (17) 
0.0

>  <APR_HepG2_OxidativeStress_72h_up>  (17) 
0.0

>  <APR_HepG2_StressKinase_24h_dn>  (17) 
0.0

>  <APR_HepG2_StressKinase_24h_up>  (17) 
0.0

>  <APR_HepG2_StressKinase_72h_dn>  (17) 
0.0

>  <APR_HepG2_StressKinase_72h_up>  (17) 
0.0

>  <APR_HepG2_p53Act_24h_dn>  (17) 
0.0

>  <APR_HepG2_p53Act_24h_up>  (17) 
1.0

>  <APR_HepG2_p53Act_72h_dn>  (17) 
0.0

>  <APR_HepG2_p53Act_72h_up>  (17) 
0.0

>  <ATG_AP_1_CIS_dn>  (17) 
0.0

>  <ATG_AP_1_CIS_up>  (17) 
0.0

>  <ATG_AP_2_CIS_dn>  (17) 
0.0

>  <ATG_AP_2_CIS_up>  (17) 
0.0

>  <ATG_AR_TRANS_dn>  (17) 
0.0

>  <ATG_AR_TRANS_up>  (17) 
0.0

>  <ATG_Ahr_CIS_dn>  (17) 
0.0

>  <ATG_Ahr_CIS_up>  (17) 
0.0

>  <ATG_BRE_CIS_up>  (17) 
0.0

>  <ATG_CMV_CIS_dn>  (17) 
0.0

>  <ATG_CMV_CIS_up>  (17) 
1.0

>  <ATG_CRE_CIS_dn>  (17) 
0.0

>  <ATG_CRE_CIS_up>  (17) 
0.0

>  <ATG_C_EBP_CIS_dn>  (17) 
0.0

>  <ATG_C_EBP_CIS_up>  (17) 
0.0

>  <ATG_DR4_LXR_CIS_dn>  (17) 
1.0

>  <ATG_DR4_LXR_CIS_up>  (17) 
0.0

>  <ATG_DR5_CIS_dn>  (17) 
0.0

>  <ATG_DR5_CIS_up>  (17) 
1.0

>  <ATG_EGR_CIS_dn>  (17) 
0.0

>  <ATG_ERE_CIS_dn>  (17) 
0.0

>  <ATG_ERE_CIS_up>  (17) 
1.0

>  <ATG_ERRa_TRANS_dn>  (17) 
0.0

>  <ATG_ERRa_TRANS_up>  (17) 
0.0

>  <ATG_ERRg_TRANS_dn>  (17) 
0.0

>  <ATG_ERRg_TRANS_up>  (17) 
0.0

>  <ATG_E_Box_CIS_dn>  (17) 
1.0

>  <ATG_E_Box_CIS_up>  (17) 
0.0

>  <ATG_Ets_CIS_dn>  (17) 
0.0

>  <ATG_Ets_CIS_up>  (17) 
0.0

>  <ATG_FXR_TRANS_up>  (17) 
0.0

>  <ATG_FoxA2_CIS_dn>  (17) 
0.0

>  <ATG_FoxA2_CIS_up>  (17) 
0.0

>  <ATG_FoxO_CIS_dn>  (17) 
0.0

>  <ATG_FoxO_CIS_up>  (17) 
0.0

>  <ATG_GAL4_TRANS_dn>  (17) 
0.0

>  <ATG_GAL4_TRANS_up>  (17) 
0.0

>  <ATG_GATA_CIS_dn>  (17) 
0.0

>  <ATG_GATA_CIS_up>  (17) 
0.0

>  <ATG_GLI_CIS_up>  (17) 
0.0

>  <ATG_GRE_CIS_dn>  (17) 
0.0

>  <ATG_GR_TRANS_dn>  (17) 
0.0

>  <ATG_GR_TRANS_up>  (17) 
0.0

>  <ATG_HIF1a_CIS_dn>  (17) 
1.0

>  <ATG_HIF1a_CIS_up>  (17) 
0.0

>  <ATG_HNF4a_TRANS_dn>  (17) 
0.0

>  <ATG_HNF4a_TRANS_up>  (17) 
0.0

>  <ATG_HNF6_CIS_dn>  (17) 
0.0

>  <ATG_HNF6_CIS_up>  (17) 
0.0

>  <ATG_HSE_CIS_dn>  (17) 
0.0

>  <ATG_HSE_CIS_up>  (17) 
0.0

>  <ATG_IR1_CIS_dn>  (17) 
0.0

>  <ATG_IR1_CIS_up>  (17) 
0.0

>  <ATG_ISRE_CIS_dn>  (17) 
0.0

>  <ATG_ISRE_CIS_up>  (17) 
0.0

>  <ATG_LXRb_TRANS_up>  (17) 
0.0

>  <ATG_MRE_CIS_dn>  (17) 
0.0

>  <ATG_MRE_CIS_up>  (17) 
0.0

>  <ATG_M_06_CIS_dn>  (17) 
0.0

>  <ATG_M_06_CIS_up>  (17) 
0.0

>  <ATG_M_06_TRANS_dn>  (17) 
0.0

>  <ATG_M_06_TRANS_up>  (17) 
0.0

>  <ATG_M_19_CIS_dn>  (17) 
0.0

>  <ATG_M_19_CIS_up>  (17) 
0.0

>  <ATG_M_19_TRANS_dn>  (17) 
0.0

>  <ATG_M_19_TRANS_up>  (17) 
0.0

>  <ATG_M_32_CIS_dn>  (17) 
0.0

>  <ATG_M_32_CIS_up>  (17) 
0.0

>  <ATG_M_32_TRANS_dn>  (17) 
0.0

>  <ATG_M_32_TRANS_up>  (17) 
0.0

>  <ATG_M_61_CIS_dn>  (17) 
0.0

>  <ATG_M_61_CIS_up>  (17) 
0.0

>  <ATG_M_61_TRANS_dn>  (17) 
0.0

>  <ATG_M_61_TRANS_up>  (17) 
0.0

>  <ATG_Myb_CIS_dn>  (17) 
0.0

>  <ATG_Myb_CIS_up>  (17) 
0.0

>  <ATG_Myc_CIS_dn>  (17) 
0.0

>  <ATG_Myc_CIS_up>  (17) 
0.0

>  <ATG_NFI_CIS_dn>  (17) 
0.0

>  <ATG_NFI_CIS_up>  (17) 
0.0

>  <ATG_NF_kB_CIS_dn>  (17) 
0.0

>  <ATG_NF_kB_CIS_up>  (17) 
0.0

>  <ATG_NRF1_CIS_dn>  (17) 
0.0

>  <ATG_NRF2_ARE_CIS_dn>  (17) 
0.0

>  <ATG_NRF2_ARE_CIS_up>  (17) 
1.0

>  <ATG_NURR1_TRANS_dn>  (17) 
0.0

>  <ATG_Oct_MLP_CIS_dn>  (17) 
0.0

>  <ATG_Oct_MLP_CIS_up>  (17) 
0.0

>  <ATG_PBREM_CIS_dn>  (17) 
0.0

>  <ATG_PBREM_CIS_up>  (17) 
0.0

>  <ATG_PPARa_TRANS_dn>  (17) 
0.0

>  <ATG_PPARa_TRANS_up>  (17) 
0.0

>  <ATG_PPARd_TRANS_dn>  (17) 
0.0

>  <ATG_PPARd_TRANS_up>  (17) 
0.0

>  <ATG_PPARg_TRANS_dn>  (17) 
0.0

>  <ATG_PPARg_TRANS_up>  (17) 
0.0

>  <ATG_PPRE_CIS_dn>  (17) 
0.0

>  <ATG_PPRE_CIS_up>  (17) 
0.0

>  <ATG_PXRE_CIS_dn>  (17) 
0.0

>  <ATG_PXRE_CIS_up>  (17) 
1.0

>  <ATG_PXR_TRANS_dn>  (17) 
0.0

>  <ATG_PXR_TRANS_up>  (17) 
1.0

>  <ATG_Pax6_CIS_dn>  (17) 
0.0

>  <ATG_Pax6_CIS_up>  (17) 
0.0

>  <ATG_RARa_TRANS_dn>  (17) 
0.0

>  <ATG_RARa_TRANS_up>  (17) 
0.0

>  <ATG_RARb_TRANS_dn>  (17) 
0.0

>  <ATG_RARb_TRANS_up>  (17) 
0.0

>  <ATG_RARg_TRANS_dn>  (17) 
0.0

>  <ATG_RARg_TRANS_up>  (17) 
1.0

>  <ATG_RORE_CIS_dn>  (17) 
0.0

>  <ATG_RORE_CIS_up>  (17) 
0.0

>  <ATG_RORb_TRANS_dn>  (17) 
0.0

>  <ATG_RORb_TRANS_up>  (17) 
0.0

>  <ATG_RORg_TRANS_dn>  (17) 
0.0

>  <ATG_RORg_TRANS_up>  (17) 
0.0

>  <ATG_RXRa_TRANS_dn>  (17) 
0.0

>  <ATG_RXRa_TRANS_up>  (17) 
0.0

>  <ATG_RXRb_TRANS_dn>  (17) 
0.0

>  <ATG_RXRb_TRANS_up>  (17) 
1.0

>  <ATG_SREBP_CIS_dn>  (17) 
0.0

>  <ATG_SREBP_CIS_up>  (17) 
0.0

>  <ATG_STAT3_CIS_dn>  (17) 
0.0

>  <ATG_STAT3_CIS_up>  (17) 
0.0

>  <ATG_Sp1_CIS_dn>  (17) 
0.0

>  <ATG_TAL_CIS_dn>  (17) 
0.0

>  <ATG_TAL_CIS_up>  (17) 
0.0

>  <ATG_TA_CIS_dn>  (17) 
0.0

>  <ATG_TA_CIS_up>  (17) 
0.0

>  <ATG_TCF_b_cat_CIS_dn>  (17) 
0.0

>  <ATG_TCF_b_cat_CIS_up>  (17) 
0.0

>  <ATG_TGFb_CIS_dn>  (17) 
0.0

>  <ATG_THRa1_TRANS_dn>  (17) 
0.0

>  <ATG_THRa1_TRANS_up>  (17) 
0.0

>  <ATG_VDRE_CIS_dn>  (17) 
0.0

>  <ATG_VDRE_CIS_up>  (17) 
1.0

>  <ATG_VDR_TRANS_dn>  (17) 
0.0

>  <ATG_VDR_TRANS_up>  (17) 
0.0

>  <ATG_XTT_Cytotoxicity_up>  (17) 
1.0

>  <ATG_Xbp1_CIS_dn>  (17) 
0.0

>  <ATG_Xbp1_CIS_up>  (17) 
0.0

>  <ATG_p53_CIS_dn>  (17) 
1.0

>  <ATG_p53_CIS_up>  (17) 
0.0

>  <BSK_3C_Eselectin_down>  (17) 
1.0

>  <BSK_3C_Eselectin_up>  (17) 
0.0

>  <BSK_3C_HLADR_up>  (17) 
0.0

>  <BSK_3C_ICAM1_down>  (17) 
1.0

>  <BSK_3C_ICAM1_up>  (17) 
0.0

>  <BSK_3C_IL8_down>  (17) 
1.0

>  <BSK_3C_IL8_up>  (17) 
0.0

>  <BSK_3C_MCP1_down>  (17) 
1.0

>  <BSK_3C_MCP1_up>  (17) 
0.0

>  <BSK_3C_MIG_down>  (17) 
1.0

>  <BSK_3C_MIG_up>  (17) 
0.0

>  <BSK_3C_Proliferation_down>  (17) 
1.0

>  <BSK_3C_Proliferation_up>  (17) 
0.0

>  <BSK_3C_SRB_down>  (17) 
1.0

>  <BSK_3C_SRB_up>  (17) 
0.0

>  <BSK_3C_Thrombomodulin_down>  (17) 
0.0

>  <BSK_3C_Thrombomodulin_up>  (17) 
0.0

>  <BSK_3C_TissueFactor_down>  (17) 
1.0

>  <BSK_3C_TissueFactor_up>  (17) 
0.0

>  <BSK_3C_VCAM1_down>  (17) 
1.0

>  <BSK_3C_VCAM1_up>  (17) 
0.0

>  <BSK_3C_Vis_up>  (17) 
0.0

>  <BSK_3C_uPAR_up>  (17) 
0.0

>  <BSK_4H_Eotaxin3_down>  (17) 
1.0

>  <BSK_4H_Eotaxin3_up>  (17) 
0.0

>  <BSK_4H_MCP1_down>  (17) 
1.0

>  <BSK_4H_MCP1_up>  (17) 
0.0

>  <BSK_4H_Pselectin_down>  (17) 
1.0

>  <BSK_4H_Pselectin_up>  (17) 
0.0

>  <BSK_4H_SRB_down>  (17) 
1.0

>  <BSK_4H_SRB_up>  (17) 
0.0

>  <BSK_4H_VCAM1_down>  (17) 
1.0

>  <BSK_4H_VCAM1_up>  (17) 
0.0

>  <BSK_4H_VEGFRII_down>  (17) 
1.0

>  <BSK_4H_VEGFRII_up>  (17) 
0.0

>  <BSK_4H_uPAR_down>  (17) 
1.0

>  <BSK_4H_uPAR_up>  (17) 
0.0

>  <BSK_BE3C_HLADR_down>  (17) 
1.0

>  <BSK_BE3C_HLADR_up>  (17) 
0.0

>  <BSK_BE3C_IL1a_down>  (17) 
1.0

>  <BSK_BE3C_IL1a_up>  (17) 
0.0

>  <BSK_BE3C_IP10_down>  (17) 
1.0

>  <BSK_BE3C_IP10_up>  (17) 
0.0

>  <BSK_BE3C_MIG_down>  (17) 
1.0

>  <BSK_BE3C_MIG_up>  (17) 
0.0

>  <BSK_BE3C_MMP1_down>  (17) 
1.0

>  <BSK_BE3C_MMP1_up>  (17) 
0.0

>  <BSK_BE3C_PAI1_down>  (17) 
1.0

>  <BSK_BE3C_PAI1_up>  (17) 
0.0

>  <BSK_BE3C_SRB_down>  (17) 
1.0

>  <BSK_BE3C_SRB_up>  (17) 
0.0

>  <BSK_BE3C_TGFb1_down>  (17) 
1.0

>  <BSK_BE3C_TGFb1_up>  (17) 
0.0

>  <BSK_BE3C_tPA_down>  (17) 
1.0

>  <BSK_BE3C_tPA_up>  (17) 
0.0

>  <BSK_BE3C_uPAR_down>  (17) 
1.0

>  <BSK_BE3C_uPAR_up>  (17) 
0.0

>  <BSK_BE3C_uPA_down>  (17) 
1.0

>  <BSK_BE3C_uPA_up>  (17) 
0.0

>  <BSK_CASM3C_HLADR_down>  (17) 
1.0

>  <BSK_CASM3C_HLADR_up>  (17) 
0.0

>  <BSK_CASM3C_IL6_down>  (17) 
1.0

>  <BSK_CASM3C_IL6_up>  (17) 
0.0

>  <BSK_CASM3C_IL8_down>  (17) 
1.0

>  <BSK_CASM3C_IL8_up>  (17) 
0.0

>  <BSK_CASM3C_LDLR_down>  (17) 
1.0

>  <BSK_CASM3C_LDLR_up>  (17) 
0.0

>  <BSK_CASM3C_MCP1_down>  (17) 
1.0

>  <BSK_CASM3C_MCP1_up>  (17) 
0.0

>  <BSK_CASM3C_MCSF_down>  (17) 
1.0

>  <BSK_CASM3C_MCSF_up>  (17) 
0.0

>  <BSK_CASM3C_MIG_down>  (17) 
1.0

>  <BSK_CASM3C_MIG_up>  (17) 
0.0

>  <BSK_CASM3C_Proliferation_down>  (17) 
1.0

>  <BSK_CASM3C_Proliferation_up>  (17) 
0.0

>  <BSK_CASM3C_SAA_down>  (17) 
1.0

>  <BSK_CASM3C_SAA_up>  (17) 
0.0

>  <BSK_CASM3C_SRB_down>  (17) 
1.0

>  <BSK_CASM3C_SRB_up>  (17) 
0.0

>  <BSK_CASM3C_Thrombomodulin_down>  (17) 
1.0

>  <BSK_CASM3C_Thrombomodulin_up>  (17) 
0.0

>  <BSK_CASM3C_TissueFactor_down>  (17) 
1.0

>  <BSK_CASM3C_TissueFactor_up>  (17) 
0.0

>  <BSK_CASM3C_VCAM1_down>  (17) 
1.0

>  <BSK_CASM3C_VCAM1_up>  (17) 
0.0

>  <BSK_CASM3C_uPAR_down>  (17) 
1.0

>  <BSK_CASM3C_uPAR_up>  (17) 
0.0

>  <BSK_KF3CT_ICAM1_down>  (17) 
1.0

>  <BSK_KF3CT_ICAM1_up>  (17) 
0.0

>  <BSK_KF3CT_IL1a_down>  (17) 
1.0

>  <BSK_KF3CT_IL1a_up>  (17) 
0.0

>  <BSK_KF3CT_IP10_down>  (17) 
1.0

>  <BSK_KF3CT_IP10_up>  (17) 
0.0

>  <BSK_KF3CT_MCP1_down>  (17) 
1.0

>  <BSK_KF3CT_MCP1_up>  (17) 
0.0

>  <BSK_KF3CT_MMP9_down>  (17) 
1.0

>  <BSK_KF3CT_MMP9_up>  (17) 
0.0

>  <BSK_KF3CT_SRB_down>  (17) 
1.0

>  <BSK_KF3CT_SRB_up>  (17) 
0.0

>  <BSK_KF3CT_TGFb1_down>  (17) 
1.0

>  <BSK_KF3CT_TGFb1_up>  (17) 
0.0

>  <BSK_KF3CT_TIMP2_down>  (17) 
1.0

>  <BSK_KF3CT_TIMP2_up>  (17) 
0.0

>  <BSK_KF3CT_uPA_down>  (17) 
1.0

>  <BSK_KF3CT_uPA_up>  (17) 
0.0

>  <BSK_LPS_CD40_down>  (17) 
1.0

>  <BSK_LPS_CD40_up>  (17) 
0.0

>  <BSK_LPS_Eselectin_down>  (17) 
1.0

>  <BSK_LPS_Eselectin_up>  (17) 
0.0

>  <BSK_LPS_IL1a_down>  (17) 
1.0

>  <BSK_LPS_IL1a_up>  (17) 
0.0

>  <BSK_LPS_IL8_down>  (17) 
1.0

>  <BSK_LPS_IL8_up>  (17) 
0.0

>  <BSK_LPS_MCP1_down>  (17) 
1.0

>  <BSK_LPS_MCP1_up>  (17) 
0.0

>  <BSK_LPS_MCSF_down>  (17) 
1.0

>  <BSK_LPS_MCSF_up>  (17) 
0.0

>  <BSK_LPS_PGE2_down>  (17) 
0.0

>  <BSK_LPS_PGE2_up>  (17) 
0.0

>  <BSK_LPS_SRB_down>  (17) 
1.0

>  <BSK_LPS_SRB_up>  (17) 
0.0

>  <BSK_LPS_TNFa_down>  (17) 
1.0

>  <BSK_LPS_TNFa_up>  (17) 
0.0

>  <BSK_LPS_TissueFactor_down>  (17) 
1.0

>  <BSK_LPS_TissueFactor_up>  (17) 
0.0

>  <BSK_LPS_VCAM1_down>  (17) 
1.0

>  <BSK_LPS_VCAM1_up>  (17) 
0.0

>  <BSK_SAg_CD38_down>  (17) 
1.0

>  <BSK_SAg_CD38_up>  (17) 
0.0

>  <BSK_SAg_CD40_down>  (17) 
1.0

>  <BSK_SAg_CD40_up>  (17) 
0.0

>  <BSK_SAg_CD69_down>  (17) 
1.0

>  <BSK_SAg_CD69_up>  (17) 
0.0

>  <BSK_SAg_Eselectin_down>  (17) 
1.0

>  <BSK_SAg_Eselectin_up>  (17) 
0.0

>  <BSK_SAg_IL8_down>  (17) 
1.0

>  <BSK_SAg_IL8_up>  (17) 
0.0

>  <BSK_SAg_MCP1_down>  (17) 
1.0

>  <BSK_SAg_MCP1_up>  (17) 
0.0

>  <BSK_SAg_MIG_down>  (17) 
1.0

>  <BSK_SAg_MIG_up>  (17) 
0.0

>  <BSK_SAg_PBMCCytotoxicity_down>  (17) 
1.0

>  <BSK_SAg_PBMCCytotoxicity_up>  (17) 
0.0

>  <BSK_SAg_Proliferation_down>  (17) 
1.0

>  <BSK_SAg_Proliferation_up>  (17) 
0.0

>  <BSK_SAg_SRB_down>  (17) 
1.0

>  <BSK_SAg_SRB_up>  (17) 
0.0

>  <BSK_hDFCGF_CollagenIII_down>  (17) 
1.0

>  <BSK_hDFCGF_CollagenIII_up>  (17) 
0.0

>  <BSK_hDFCGF_EGFR_down>  (17) 
1.0

>  <BSK_hDFCGF_EGFR_up>  (17) 
0.0

>  <BSK_hDFCGF_IL8_down>  (17) 
1.0

>  <BSK_hDFCGF_IL8_up>  (17) 
0.0

>  <BSK_hDFCGF_IP10_down>  (17) 
1.0

>  <BSK_hDFCGF_IP10_up>  (17) 
0.0

>  <BSK_hDFCGF_MCSF_down>  (17) 
1.0

>  <BSK_hDFCGF_MCSF_up>  (17) 
0.0

>  <BSK_hDFCGF_MIG_down>  (17) 
1.0

>  <BSK_hDFCGF_MIG_up>  (17) 
0.0

>  <BSK_hDFCGF_MMP1_down>  (17) 
1.0

>  <BSK_hDFCGF_MMP1_up>  (17) 
0.0

>  <BSK_hDFCGF_PAI1_down>  (17) 
1.0

>  <BSK_hDFCGF_PAI1_up>  (17) 
0.0

>  <BSK_hDFCGF_Proliferation_down>  (17) 
1.0

>  <BSK_hDFCGF_Proliferation_up>  (17) 
0.0

>  <BSK_hDFCGF_SRB_down>  (17) 
1.0

>  <BSK_hDFCGF_SRB_up>  (17) 
0.0

>  <BSK_hDFCGF_TIMP1_down>  (17) 
1.0

>  <BSK_hDFCGF_TIMP1_up>  (17) 
0.0

>  <BSK_hDFCGF_VCAM1_down>  (17) 
1.0

>  <BSK_hDFCGF_VCAM1_up>  (17) 
0.0

>  <NCCT_HEK293T_CellTiterGLO>  (17) 
1.0

>  <NCCT_QuantiLum_inhib_2_dn>  (17) 
0.0

>  <NCCT_QuantiLum_inhib_dn>  (17) 
0.0

>  <NCCT_TPO_AUR_dn>  (17) 
1.0

>  <NHEERL_MED_hDIO1_dn>  (17) 
1.0

>  <NHEERL_ZF_144hpf_TERATOSCORE_up>  (17) 
1.0

>  <NIS_HEK293T_CTG_Cytotoxicity>  (17) 
1.0

>  <NIS_RAIU_inhibition>  (17) 
1.0

>  <NVS_ADME_hCYP2B6>  (17) 
1.0

>  <NVS_ADME_hCYP2B6_Activator>  (17) 
0.0

>  <NVS_ENZ_hGSK3b>  (17) 
0.0

>  <NVS_ENZ_hGSK3b_Activator>  (17) 
0.0

>  <NVS_ENZ_hPDE5>  (17) 
0.0

>  <NVS_ENZ_hPDE5_Activator>  (17) 
0.0

>  <NVS_ENZ_hPTPN9>  (17) 
0.0

>  <NVS_ENZ_hPTPN9_Activator>  (17) 
0.0

>  <NVS_ENZ_hSIRT2>  (17) 
0.0

>  <NVS_ENZ_hSIRT2_Activator>  (17) 
0.0

>  <NVS_ENZ_hVEGFR2>  (17) 
0.0

>  <NVS_ENZ_hVEGFR2_Activator>  (17) 
0.0

>  <NVS_ENZ_oCOX2>  (17) 
0.0

>  <NVS_ENZ_oCOX2_Activator>  (17) 
0.0

>  <NVS_GPCR_h5HT6>  (17) 
0.0

>  <NVS_GPCR_h5HT7>  (17) 
1.0

>  <NVS_GPCR_hAdoRA2a>  (17) 
1.0

>  <NVS_GPCR_hAdra2C>  (17) 
1.0

>  <NVS_GPCR_hDRD2s>  (17) 
0.0

>  <NVS_GPCR_hM1>  (17) 
0.0

>  <NVS_GPCR_hM2>  (17) 
1.0

>  <NVS_GPCR_hM4>  (17) 
0.0

>  <NVS_GPCR_hNK2>  (17) 
1.0

>  <NVS_GPCR_hORL1>  (17) 
0.0

>  <NVS_GPCR_hOpiate_D1>  (17) 
1.0

>  <NVS_GPCR_hOpiate_mu>  (17) 
1.0

>  <NVS_GPCR_hPY2>  (17) 
0.0

>  <NVS_GPCR_hTXA2>  (17) 
1.0

>  <NVS_GPCR_mCCKAPeripheral>  (17) 
1.0

>  <NVS_GPCR_mCKKBCentral>  (17) 
0.0

>  <NVS_IC_rNaCh_site2>  (17) 
1.0

>  <NVS_MP_rPBR>  (17) 
0.0

>  <NVS_NR_hPPARg>  (17) 
0.0

>  <NVS_NR_hPXR>  (17) 
0.0

>  <NVS_NR_rMR>  (17) 
0.0

>  <NVS_TR_gDAT>  (17) 
1.0

>  <NVS_TR_hDAT>  (17) 
1.0

>  <NVS_TR_hNET>  (17) 
1.0

>  <NVS_TR_hSERT>  (17) 
0.0

>  <NVS_TR_rVMAT2>  (17) 
0.0

>  <OT_AR_ARSRC1_0480>  (17) 
1.0

>  <OT_AR_ARSRC1_0960>  (17) 
1.0

>  <OT_ER_ERaERa_0480>  (17) 
1.0

>  <OT_ER_ERaERa_1440>  (17) 
1.0

>  <OT_ER_ERaERb_0480>  (17) 
1.0

>  <OT_ER_ERbERb_0480>  (17) 
1.0

>  <OT_ER_ERbERb_1440>  (17) 
1.0

>  <OT_ERa_EREGFP_0480>  (17) 
1.0

>  <TOX21_AP1_BLA_Agonist_ch1>  (17) 
1.0

>  <TOX21_AP1_BLA_Agonist_ch2>  (17) 
0.0

>  <TOX21_AP1_BLA_Agonist_ratio>  (17) 
1.0

>  <TOX21_AP1_BLA_Agonist_viability>  (17) 
1.0

>  <TOX21_ARE_BLA_Agonist_ch1>  (17) 
1.0

>  <TOX21_ARE_BLA_Agonist_ch2>  (17) 
0.0

>  <TOX21_ARE_BLA_agonist_viability>  (17) 
1.0

>  <TOX21_AR_BLA_Agonist_ch1>  (17) 
0.0

>  <TOX21_AR_BLA_Agonist_ch2>  (17) 
0.0

>  <TOX21_AR_BLA_Agonist_ratio>  (17) 
0.0

>  <TOX21_AR_BLA_Antagonist_ch1>  (17) 
0.0

>  <TOX21_AR_BLA_Antagonist_ch2>  (17) 
0.0

>  <TOX21_AR_BLA_Antagonist_ratio>  (17) 
1.0

>  <TOX21_AR_BLA_Antagonist_viability>  (17) 
1.0

>  <TOX21_AR_LUC_MDAKB2_Agonist>  (17) 
0.0

>  <TOX21_AR_LUC_MDAKB2_Agonist_3uM_Nilutamide>  (17) 
0.0

>  <TOX21_AR_LUC_MDAKB2_Agonist_3uM_Nilutamide_viability>  (17) 
0.0

>  <TOX21_AR_LUC_MDAKB2_Antagonist_0.5nM_R1881>  (17) 
1.0

>  <TOX21_AR_LUC_MDAKB2_Antagonist_0.5nM_R1881_viability>  (17) 
0.0

>  <TOX21_AR_LUC_MDAKB2_Antagonist_10nM_R1881>  (17) 
0.0

>  <TOX21_AR_LUC_MDAKB2_Antagonist_10nM_R1881_viability>  (17) 
1.0

>  <TOX21_AhR_LUC_Agonist>  (17) 
0.0

>  <TOX21_Aromatase_Inhibition>  (17) 
1.0

>  <TOX21_Aromatase_Inhibition_viability>  (17) 
1.0

>  <TOX21_AutoFluor_HEK293_Cell_blue>  (17) 
0.0

>  <TOX21_AutoFluor_HEK293_Cell_green>  (17) 
0.0

>  <TOX21_AutoFluor_HEK293_Cell_red>  (17) 
0.0

>  <TOX21_AutoFluor_HEK293_Media_blue>  (17) 
0.0

>  <TOX21_AutoFluor_HEK293_Media_green>  (17) 
0.0

>  <TOX21_AutoFluor_HEK293_Media_red>  (17) 
0.0

>  <TOX21_AutoFluor_HEPG2_Cell_blue>  (17) 
0.0

>  <TOX21_AutoFluor_HEPG2_Cell_green>  (17) 
0.0

>  <TOX21_AutoFluor_HEPG2_Cell_red>  (17) 
0.0

>  <TOX21_AutoFluor_HEPG2_Media_blue>  (17) 
0.0

>  <TOX21_AutoFluor_HEPG2_Media_green>  (17) 
0.0

>  <TOX21_AutoFluor_HEPG2_Media_red>  (17) 
0.0

>  <TOX21_CAR_Agonist>  (17) 
0.0

>  <TOX21_CAR_Antagonist>  (17) 
1.0

>  <TOX21_CAR_Antagonist_viability>  (17) 
1.0

>  <TOX21_CASP3_CHO>  (17) 
0.0

>  <TOX21_CASP3_CHO_viability>  (17) 
1.0

>  <TOX21_CASP3_HEPG2>  (17) 
0.0

>  <TOX21_CASP3_HEPG2_viability>  (17) 
1.0

>  <TOX21_DT40>  (17) 
1.0

>  <TOX21_DT40_100>  (17) 
1.0

>  <TOX21_DT40_657>  (17) 
1.0

>  <TOX21_ELG1_LUC_Agonist>  (17) 
0.0

>  <TOX21_ELG1_LUC_Agonist_viability>  (17) 
1.0

>  <TOX21_ERR_Agonist>  (17) 
0.0

>  <TOX21_ERR_Antagonist>  (17) 
1.0

>  <TOX21_ERa_BLA_Agonist_ch1>  (17) 
1.0

>  <TOX21_ERa_BLA_Agonist_ch2>  (17) 
1.0

>  <TOX21_ERa_BLA_Agonist_ratio>  (17) 
1.0

>  <TOX21_ERa_BLA_Antagonist_ch1>  (17) 
0.0

>  <TOX21_ERa_BLA_Antagonist_ch2>  (17) 
1.0

>  <TOX21_ERa_BLA_Antagonist_ratio>  (17) 
1.0

>  <TOX21_ERa_BLA_Antagonist_viability>  (17) 
1.0

>  <TOX21_ERa_LUC_VM7_Agonist>  (17) 
1.0

>  <TOX21_ERa_LUC_VM7_Agonist_10nM_ICI182780>  (17) 
1.0

>  <TOX21_ERa_LUC_VM7_Agonist_10nM_ICI182780_viability>  (17) 
0.0

>  <TOX21_ERa_LUC_VM7_Antagonist_0.1nM_E2>  (17) 
1.0

>  <TOX21_ERa_LUC_VM7_Antagonist_0.1nM_E2_viability>  (17) 
0.0

>  <TOX21_ERa_LUC_VM7_Antagonist_0.5nM_E2>  (17) 
1.0

>  <TOX21_ERa_LUC_VM7_Antagonist_0.5nM_E2_viability>  (17) 
0.0

>  <TOX21_ERb_BLA_Agonist_ch1>  (17) 
1.0

>  <TOX21_ERb_BLA_Agonist_ch2>  (17) 
1.0

>  <TOX21_ERb_BLA_Agonist_ratio>  (17) 
0.0

>  <TOX21_ERb_BLA_Agonist_viability>  (17) 
1.0

>  <TOX21_ERb_BLA_Antagonist_ch1>  (17) 
0.0

>  <TOX21_ERb_BLA_Antagonist_ch2>  (17) 
1.0

>  <TOX21_ERb_BLA_Antagonist_ratio>  (17) 
1.0

>  <TOX21_ERb_BLA_Antagonist_viability>  (17) 
1.0

>  <TOX21_ESRE_BLA_ch1>  (17) 
1.0

>  <TOX21_ESRE_BLA_ch2>  (17) 
0.0

>  <TOX21_ESRE_BLA_ratio>  (17) 
0.0

>  <TOX21_ESRE_BLA_viability>  (17) 
1.0

>  <TOX21_FXR_BLA_Antagonist_ch1>  (17) 
0.0

>  <TOX21_FXR_BLA_Antagonist_ch2>  (17) 
1.0

>  <TOX21_FXR_BLA_agonist_ch1>  (17) 
0.0

>  <TOX21_FXR_BLA_agonist_ch2>  (17) 
0.0

>  <TOX21_FXR_BLA_agonist_ratio>  (17) 
0.0

>  <TOX21_FXR_BLA_agonist_viability>  (17) 
1.0

>  <TOX21_FXR_BLA_antagonist_ratio>  (17) 
1.0

>  <TOX21_FXR_BLA_antagonist_viability>  (17) 
1.0

>  <TOX21_GR_BLA_Agonist_ch1>  (17) 
1.0

>  <TOX21_GR_BLA_Agonist_ch2>  (17) 
0.0

>  <TOX21_GR_BLA_Agonist_ratio>  (17) 
1.0

>  <TOX21_GR_BLA_Antagonist_ch1>  (17) 
0.0

>  <TOX21_GR_BLA_Antagonist_ch2>  (17) 
1.0

>  <TOX21_GR_BLA_Antagonist_ratio>  (17) 
0.0

>  <TOX21_GR_BLA_Antagonist_viability>  (17) 
1.0

>  <TOX21_H2AX_HTRF_CHO_Agonist_ch1>  (17) 
0.0

>  <TOX21_H2AX_HTRF_CHO_Agonist_ch2>  (17) 
0.0

>  <TOX21_H2AX_HTRF_CHO_Agonist_ratio>  (17) 
1.0

>  <TOX21_H2AX_HTRF_CHO_viability>  (17) 
1.0

>  <TOX21_HDAC_Inhibition>  (17) 
0.0

>  <TOX21_HDAC_Inhibition_viability>  (17) 
1.0

>  <TOX21_HRE_BLA_Agonist_ch1>  (17) 
1.0

>  <TOX21_HRE_BLA_Agonist_ch2>  (17) 
0.0

>  <TOX21_HRE_BLA_Agonist_ratio>  (17) 
1.0

>  <TOX21_HRE_BLA_Agonist_viability>  (17) 
1.0

>  <TOX21_HSE_BLA_agonist_ch1>  (17) 
1.0

>  <TOX21_HSE_BLA_agonist_ch2>  (17) 
0.0

>  <TOX21_HSE_BLA_agonist_ratio>  (17) 
1.0

>  <TOX21_HSE_BLA_agonist_viability>  (17) 
1.0

>  <TOX21_LUC_Biochem>  (17) 
0.0

>  <TOX21_MMP_fitc>  (17) 
0.0

>  <TOX21_MMP_ratio_down>  (17) 
1.0

>  <TOX21_MMP_ratio_up>  (17) 
0.0

>  <TOX21_MMP_rhodamine>  (17) 
1.0

>  <TOX21_MMP_viability>  (17) 
1.0

>  <TOX21_NFkB_BLA_agonist_ch1>  (17) 
1.0

>  <TOX21_NFkB_BLA_agonist_ch2>  (17) 
0.0

>  <TOX21_NFkB_BLA_agonist_ratio>  (17) 
0.0

>  <TOX21_NFkB_BLA_agonist_viability>  (17) 
1.0

>  <TOX21_PGC_ERR_Agonist>  (17) 
0.0

>  <TOX21_PGC_ERR_Antagonist>  (17) 
0.0

>  <TOX21_PGC_ERR_viability>  (17) 
1.0

>  <TOX21_PPARd_BLA_Agonist_viability>  (17) 
1.0

>  <TOX21_PPARd_BLA_Antagonist_ch1>  (17) 
0.0

>  <TOX21_PPARd_BLA_Antagonist_ch2>  (17) 
1.0

>  <TOX21_PPARd_BLA_agonist_ch1>  (17) 
0.0

>  <TOX21_PPARd_BLA_agonist_ch2>  (17) 
0.0

>  <TOX21_PPARd_BLA_agonist_ratio>  (17) 
1.0

>  <TOX21_PPARd_BLA_antagonist_ratio>  (17) 
0.0

>  <TOX21_PPARd_BLA_antagonist_viability>  (17) 
1.0

>  <TOX21_PPARg_BLA_Agonist_ch1>  (17) 
0.0

>  <TOX21_PPARg_BLA_Agonist_ch2>  (17) 
0.0

>  <TOX21_PPARg_BLA_Agonist_ratio>  (17) 
0.0

>  <TOX21_PPARg_BLA_Antagonist_ch1>  (17) 
0.0

>  <TOX21_PPARg_BLA_Antagonist_ch2>  (17) 
0.0

>  <TOX21_PPARg_BLA_antagonist_ratio>  (17) 
0.0

>  <TOX21_PPARg_BLA_antagonist_viability>  (17) 
1.0

>  <TOX21_PR_BLA_Agonist_ch1>  (17) 
1.0

>  <TOX21_PR_BLA_Agonist_ch2>  (17) 
0.0

>  <TOX21_PR_BLA_Agonist_ratio>  (17) 
0.0

>  <TOX21_PR_BLA_Antagonist_ch1>  (17) 
0.0

>  <TOX21_PR_BLA_Antagonist_ch2>  (17) 
1.0

>  <TOX21_PR_BLA_Antagonist_ratio>  (17) 
1.0

>  <TOX21_PR_BLA_Antagonist_viability>  (17) 
1.0

>  <TOX21_PXR_Agonist>  (17) 
1.0

>  <TOX21_PXR_viability>  (17) 
1.0

>  <TOX21_RAR_LUC_Agonist>  (17) 
0.0

>  <TOX21_RAR_LUC_Agonist_viability>  (17) 
1.0

>  <TOX21_RAR_LUC_Antagonist_viability>  (17) 
1.0

>  <TOX21_RORg_LUC_CHO_Antagonist>  (17) 
1.0

>  <TOX21_RORg_LUC_CHO_Antagonist_viability>  (17) 
1.0

>  <TOX21_RT_HEK293_FLO_00hr_viability>  (17) 
0.0

>  <TOX21_RT_HEK293_FLO_08hr_viability>  (17) 
1.0

>  <TOX21_RT_HEK293_FLO_16hr_viability>  (17) 
1.0

>  <TOX21_RT_HEK293_FLO_24hr_viability>  (17) 
1.0

>  <TOX21_RT_HEK293_FLO_32hr_viability>  (17) 
1.0

>  <TOX21_RT_HEK293_FLO_40hr_viability>  (17) 
1.0

>  <TOX21_RT_HEK293_GLO_00hr_viability>  (17) 
0.0

>  <TOX21_RT_HEK293_GLO_08hr_viability>  (17) 
1.0

>  <TOX21_RT_HEK293_GLO_16hr_viability>  (17) 
1.0

>  <TOX21_RT_HEK293_GLO_24hr_viability>  (17) 
1.0

>  <TOX21_RT_HEK293_GLO_32hr_viability>  (17) 
1.0

>  <TOX21_RT_HEK293_GLO_40hr_viability>  (17) 
1.0

>  <TOX21_RT_HEPG2_FLO_00hr_ctrl_viability>  (17) 
0.0

>  <TOX21_RT_HEPG2_FLO_08hr_viability>  (17) 
1.0

>  <TOX21_RT_HEPG2_FLO_16hr_ctrl_viability>  (17) 
1.0

>  <TOX21_RT_HEPG2_FLO_24hr_viability>  (17) 
1.0

>  <TOX21_RT_HEPG2_FLO_32hr_ctrl_viability>  (17) 
1.0

>  <TOX21_RT_HEPG2_GLO_00hr_ctrl_viability>  (17) 
0.0

>  <TOX21_RT_HEPG2_GLO_08hr_ctrl_viability>  (17) 
1.0

>  <TOX21_RT_HEPG2_GLO_16hr_ctrl_viability>  (17) 
1.0

>  <TOX21_RT_HEPG2_GLO_24hr_ctrl_viability>  (17) 
1.0

>  <TOX21_RT_HEPG2_GLO_32hr_ctrl_viability>  (17) 
1.0

>  <TOX21_RT_HEPG2_GLO_40hr_viability>  (17) 
1.0

>  <TOX21_RXR_BLA_Agonist_ch1>  (17) 
1.0

>  <TOX21_RXR_BLA_Agonist_ch2>  (17) 
0.0

>  <TOX21_RXR_BLA_Agonist_ratio>  (17) 
0.0

>  <TOX21_RXR_BLA_Agonist_viability>  (17) 
1.0

>  <TOX21_SBE_BLA_Agonist_ch1>  (17) 
1.0

>  <TOX21_SBE_BLA_Agonist_ch2>  (17) 
0.0

>  <TOX21_SBE_BLA_Agonist_ratio>  (17) 
0.0

>  <TOX21_SBE_BLA_Agonist_viability>  (17) 
1.0

>  <TOX21_SBE_BLA_Antagonist_ch1>  (17) 
0.0

>  <TOX21_SBE_BLA_Antagonist_ch2>  (17) 
1.0

>  <TOX21_SBE_BLA_Antagonist_ratio>  (17) 
1.0

>  <TOX21_SBE_BLA_Antagonist_viability>  (17) 
1.0

>  <TOX21_SSH_3T3_GLI3_Agonist>  (17) 
0.0

>  <TOX21_SSH_3T3_GLI3_Agonist_viability>  (17) 
1.0

>  <TOX21_SSH_3T3_GLI3_Antagonist>  (17) 
1.0

>  <TOX21_SSH_3T3_GLI3_Antagonist_viability>  (17) 
1.0

>  <TOX21_TRHR_HEK293_Agonist>  (17) 
0.0

>  <TOX21_TRHR_HEK293_Antagonist>  (17) 
1.0

>  <TOX21_TR_LUC_GH3_Agonist>  (17) 
0.0

>  <TOX21_TR_LUC_GH3_Antagonist>  (17) 
1.0

>  <TOX21_TR_LUC_GH3_Antagonist_viability>  (17) 
1.0

>  <TOX21_TSHR_Agonist_ch2>  (17) 
0.0

>  <TOX21_TSHR_Antagonist_ch2>  (17) 
0.0

>  <TOX21_TSHR_Antagonist_ratio>  (17) 
0.0

>  <TOX21_TSHR_HTRF_Agonist_ch1>  (17) 
1.0

>  <TOX21_TSHR_HTRF_Antagonist_ch1>  (17) 
0.0

>  <TOX21_TSHR_wt_HTRF_ch1>  (17) 
0.0

>  <TOX21_TSHR_wt_ch2>  (17) 
0.0

>  <TOX21_TSHR_wt_ratio>  (17) 
0.0

>  <TOX21_VDR_BLA_Agonist_viability>  (17) 
1.0

>  <TOX21_VDR_BLA_Antagonist_ch1>  (17) 
0.0

>  <TOX21_VDR_BLA_Antagonist_ch2>  (17) 
1.0

>  <TOX21_VDR_BLA_agonist_ch1>  (17) 
0.0

>  <TOX21_VDR_BLA_agonist_ch2>  (17) 
0.0

>  <TOX21_VDR_BLA_agonist_ratio>  (17) 
0.0

>  <TOX21_VDR_BLA_antagonist_ratio>  (17) 
1.0

>  <TOX21_VDR_BLA_antagonist_viability>  (17) 
1.0

>  <TOX21_p53_BLA_p1_ch1>  (17) 
1.0

>  <TOX21_p53_BLA_p1_ch2>  (17) 
0.0

>  <TOX21_p53_BLA_p1_ratio>  (17) 
1.0

>  <TOX21_p53_BLA_p1_viability>  (17) 
1.0

>  <TOX21_p53_BLA_p2_ch1>  (17) 
1.0

>  <TOX21_p53_BLA_p2_ch2>  (17) 
0.0

>  <TOX21_p53_BLA_p2_ratio>  (17) 
1.0

>  <TOX21_p53_BLA_p2_viability>  (17) 
1.0

>  <TOX21_p53_BLA_p3_ch1>  (17) 
1.0

>  <TOX21_p53_BLA_p3_ch2>  (17) 
0.0

>  <TOX21_p53_BLA_p3_ratio>  (17) 
1.0

>  <TOX21_p53_BLA_p4_ch1>  (17) 
1.0

>  <TOX21_p53_BLA_p4_ch2>  (17) 
0.0

>  <TOX21_p53_BLA_p4_ratio>  (17) 
1.0

>  <TOX21_p53_BLA_p4_viability>  (17) 
1.0

>  <TOX21_p53_BLA_p5_ch1>  (17) 
1.0

>  <TOX21_p53_BLA_p5_ch2>  (17) 
0.0

>  <TOX21_p53_BLA_p5_ratio>  (17) 
1.0

>  <TOX21_p53_BLA_p5_viability>  (17) 
1.0

>  <Tanguay_ZF_120hpf_AXIS_up>  (17) 
0.0

>  <Tanguay_ZF_120hpf_ActivityScore>  (17) 
0.0

>  <Tanguay_ZF_120hpf_BRAI_up>  (17) 
0.0

>  <Tanguay_ZF_120hpf_CFIN_up>  (17) 
0.0

>  <Tanguay_ZF_120hpf_CIRC_up>  (17) 
0.0

>  <Tanguay_ZF_120hpf_EYE_up>  (17) 
0.0

>  <Tanguay_ZF_120hpf_JAW_up>  (17) 
0.0

>  <Tanguay_ZF_120hpf_MORT_up>  (17) 
0.0

>  <Tanguay_ZF_120hpf_NC_up>  (17) 
0.0

>  <Tanguay_ZF_120hpf_OTIC_up>  (17) 
0.0

>  <Tanguay_ZF_120hpf_PE_up>  (17) 
0.0

>  <Tanguay_ZF_120hpf_PFIN_up>  (17) 
0.0

>  <Tanguay_ZF_120hpf_PIG_up>  (17) 
0.0

>  <Tanguay_ZF_120hpf_SNOU_up>  (17) 
0.0

>  <Tanguay_ZF_120hpf_SOMI_up>  (17) 
0.0

>  <Tanguay_ZF_120hpf_SWIM_up>  (17) 
0.0

>  <Tanguay_ZF_120hpf_TRUN_up>  (17) 
0.0

>  <Tanguay_ZF_120hpf_TR_up>  (17) 
0.0

>  <Tanguay_ZF_120hpf_YSE_up>  (17) 
0.0

>  <UPITT_HCI_U2OS_AR_TIF2_Nucleoli_Agonist>  (17) 
1.0

>  <UPITT_HCI_U2OS_AR_TIF2_Nucleoli_Antagonist>  (17) 
1.0

>  <UPITT_HCI_U2OS_AR_TIF2_Nucleoli_Cytoplasm_Ratio_Agonist>  (17) 
1.0

>  <UPITT_HCI_U2OS_AR_TIF2_Nucleoli_Cytoplasm_Ratio_Antagonist>  (17) 
1.0

>  <NVS_NR_mERa>  (17) 
1.0

$$$$

     RDKit          3D

 19 20  0  0  0  0  0  0  0  0999 V2000
    0.0000    0.0000    0.0000 C   0  0  0  0  0  0  0  0  0  0  0  0
    0.0000    0.0000    0.0000 C   0  0  0  0  0  0  0  0  0  0  0  0
    0.0000    0.0000    0.0000 C   0  0  0  0  0  0  0  0  0  0  0  0
    0.0000    0.0000    0.0000 C   0  0  0  0  0  0  0  0  0  0  0  0
    0.0000    0.0000    0.0000 C   0  0  0  0  0  0  0  0  0  0  0  0
    0.0000    0.0000    0.0000 C   0  0  0  0  0  0  0  0  0  0  0  0
    0.0000    0.0000    0.0000 C   0  0  0  0  0  0  0  0  0  0  0  0
    0.0000    0.0000    0.0000 C   0  0  0  0  0  0  0  0  0  0  0  0
    0.0000    0.0000    0.0000 C   0  0  0  0  0  0  0  0  0  0  0  0
    0.0000    0.0000    0.0000 C   0  0  0  0  0  0  0  0  0  0  0  0
    0.0000    0.0000    0.0000 C   0  0  0  0  0  0  0  0  0  0  0  0
    0.0000    0.0000    0.0000 C   0  0  0  0  0  0  0  0  0  0  0  0
    0.0000    0.0000    0.0000 C   0  0  0  0  0  0  0  0  0  0  0  0
    0.0000    0.0000    0.0000 Cl  0  0  0  0  0  0  0  0  0  0  0  0
    0.0000    0.0000    0.0000 C   0  0  0  0  0  0  0  0  0  0  0  0
    0.0000    0.0000    0.0000 Cl  0  0  0  0  0  0  0  0  0  0  0  0
    0.0000    0.0000    0.0000 Cl  0  0  0  0  0  0  0  0  0  0  0  0
    0.0000    0.0000    0.0000 Cl  0  0  0  0  0  0  0  0  0  0  0  0
    0.0000    0.0000    0.0000 Cl  0  0  0  0  0  0  0  0  0  0  0  0
  1  2  2  0
  2  3  1  0
  3  4  2  0
  4  5  1  0
  5  6  2  0
  5  7  1  0
  7  8  1  0
  8  9  2  0
  9 10  1  0
 10 11  2  0
 11 12  1  0
 12 13  2  0
 11 14  1  0
  7 15  1  0
 15 16  1  0
 15 17  1  0
 15 18  1  0
  4 19  1  0
  6  1  1  0
 13  8  1  0
M  END
>  <CASRN>  (18) 
789-02-6

>  <Name>  (18) 
o,p'-DDT

>  <Active>  (18) 
15

>  <Inactive>  (18) 
1

>  <Bioactivity>  (18) 
Active

>  <Min LEL>  (18) 
1.0

>  <Max HDT>  (18) 
100.0

>  <Class>  (18) 
1

>  <Code>  (18) 
C789026

>  <NVS_NR_hER>  (18) 
0.0

>  <NVS_NR_rAR>  (18) 
0.0

>  <OT_ER_ERaERb_1440>  (18) 
1.0

>  <OT_FXR_FXRSRC1_0480>  (18) 
1.0

>  <OT_PPARg_PPARgSRC1_1440>  (18) 
0.0

>  <OT_FXR_FXRSRC1_1440>  (18) 
0.0

>  <OT_NURR1_NURR1RXRa_0480>  (18) 
1.0

>  <OT_NURR1_NURR1RXRa_1440>  (18) 
0.0

>  <OT_PPARg_PPARgSRC1_0480>  (18) 
0.0

>  <OT_AR_ARELUC_AG_1440>  (18) 
0.0

>  <OT_ERa_EREGFP_0120>  (18) 
1.0

>  <BSK_3C_HLADR_down>  (18) 
1.0

>  <BSK_3C_Vis_down>  (18) 
1.0

>  <BSK_3C_uPAR_down>  (18) 
1.0

>  <ATG_CAR_TRANS_up>  (18) 
0.0

>  <ATG_E2F_CIS_dn>  (18) 
0.0

>  <ATG_EGR_CIS_up>  (18) 
1.0

>  <ATG_ERa_TRANS_dn>  (18) 
0.0

>  <ATG_ERa_TRANS_up>  (18) 
1.0

>  <ATG_FXR_TRANS_dn>  (18) 
0.0

>  <ATG_GLI_CIS_dn>  (18) 
0.0

>  <ATG_GRE_CIS_up>  (18) 
0.0

>  <ATG_LXRa_TRANS_dn>  (18) 
0.0

>  <ATG_LXRa_TRANS_up>  (18) 
0.0

>  <ATG_NRF1_CIS_up>  (18) 
0.0

>  <ATG_NURR1_TRANS_up>  (18) 
0.0

>  <ATG_Sox_CIS_dn>  (18) 
0.0

>  <ATG_Sox_CIS_up>  (18) 
0.0

>  <ATG_Sp1_CIS_up>  (18) 
1.0

>  <ATG_TGFb_CIS_up>  (18) 
0.0

>  <TOX21_ARE_BLA_agonist_ratio>  (18) 
0.0

>  <TOX21_RAR_LUC_Antagonist>  (18) 
1.0

>  <ATG_LXRb_TRANS_dn>  (18) 
0.0

>  <ATG_CAR_TRANS_dn>  (18) 
0.0

>  <ATG_BRE_CIS_dn>  (18) 
0.0

>  <ATG_E2F_CIS_up>  (18) 
0.0

>  <TOX21_TSHR_Agonist_ratio>  (18) 
1.0

>  <ACEA_ER_80hr>  (18) 
1.0

>  <TOX21_CAR_Agonist_viabillity>  (18) 
0.0

>  <TOX21_PR_BLA_Agonist_viability>  (18) 
1.0

>  <TOX21_RT_HEPG2_FLO_40hr_ctrl_viability>  (18) 
0.0

>  <TOX21_AhR_LUC_Agonist_viability>  (18) 
0.0

>  <TOX21_ERR_viability>  (18) 
1.0

>  <TOX21_p53_BLA_p3_viability>  (18) 
1.0

>  <NVS_NR_cAR>  (18) 
1.0

>  <NVS_NR_hPR>  (18) 
0.0

>  <NVS_NR_hGR>  (18) 
1.0

>  <NVS_NR_hAR>  (18) 
1.0

>  <NVS_NR_bER>  (18) 
0.0

>  <ACEA_AR_agonist_80hr>  (18) 
0.0

>  <ACEA_AR_agonist_AUC_viability>  (18) 
1.0

>  <ACEA_AR_antagonist_80hr>  (18) 
1.0

>  <ACEA_AR_antagonist_AUC_viability>  (18) 
1.0

>  <ACEA_ER_AUC_viability>  (18) 
1.0

>  <APR_HepG2_CellCycleArrest_24h_dn>  (18) 
1.0

>  <APR_HepG2_CellCycleArrest_24h_up>  (18) 
0.0

>  <APR_HepG2_CellCycleArrest_72h_dn>  (18) 
1.0

>  <APR_HepG2_CellCycleArrest_72h_up>  (18) 
0.0

>  <APR_HepG2_CellLoss_24h_dn>  (18) 
1.0

>  <APR_HepG2_CellLoss_24h_up>  (18) 
0.0

>  <APR_HepG2_CellLoss_72h_dn>  (18) 
1.0

>  <APR_HepG2_CellLoss_72h_up>  (18) 
0.0

>  <APR_HepG2_MicrotubuleCSK_24h_dn>  (18) 
0.0

>  <APR_HepG2_MicrotubuleCSK_24h_up>  (18) 
1.0

>  <APR_HepG2_MicrotubuleCSK_72h_dn>  (18) 
0.0

>  <APR_HepG2_MicrotubuleCSK_72h_up>  (18) 
0.0

>  <APR_HepG2_MitoMass_24h_dn>  (18) 
1.0

>  <APR_HepG2_MitoMass_24h_up>  (18) 
0.0

>  <APR_HepG2_MitoMass_72h_dn>  (18) 
0.0

>  <APR_HepG2_MitoMass_72h_up>  (18) 
0.0

>  <APR_HepG2_MitoMembPot_24h_dn>  (18) 
0.0

>  <APR_HepG2_MitoMembPot_24h_up>  (18) 
0.0

>  <APR_HepG2_MitoMembPot_72h_dn>  (18) 
1.0

>  <APR_HepG2_MitoMembPot_72h_up>  (18) 
0.0

>  <APR_HepG2_MitoticArrest_24h_dn>  (18) 
0.0

>  <APR_HepG2_MitoticArrest_24h_up>  (18) 
1.0

>  <APR_HepG2_MitoticArrest_72h_dn>  (18) 
0.0

>  <APR_HepG2_MitoticArrest_72h_up>  (18) 
1.0

>  <APR_HepG2_NuclearSize_24h_dn>  (18) 
0.0

>  <APR_HepG2_NuclearSize_24h_up>  (18) 
0.0

>  <APR_HepG2_NuclearSize_72h_dn>  (18) 
0.0

>  <APR_HepG2_NuclearSize_72h_up>  (18) 
0.0

>  <APR_HepG2_OxidativeStress_24h_dn>  (18) 
0.0

>  <APR_HepG2_OxidativeStress_24h_up>  (18) 
1.0

>  <APR_HepG2_OxidativeStress_72h_dn>  (18) 
0.0

>  <APR_HepG2_OxidativeStress_72h_up>  (18) 
0.0

>  <APR_HepG2_StressKinase_24h_dn>  (18) 
0.0

>  <APR_HepG2_StressKinase_24h_up>  (18) 
1.0

>  <APR_HepG2_StressKinase_72h_dn>  (18) 
0.0

>  <APR_HepG2_StressKinase_72h_up>  (18) 
0.0

>  <APR_HepG2_p53Act_24h_dn>  (18) 
0.0

>  <APR_HepG2_p53Act_24h_up>  (18) 
1.0

>  <APR_HepG2_p53Act_72h_dn>  (18) 
0.0

>  <APR_HepG2_p53Act_72h_up>  (18) 
0.0

>  <ATG_AP_1_CIS_dn>  (18) 
0.0

>  <ATG_AP_1_CIS_up>  (18) 
1.0

>  <ATG_AP_2_CIS_dn>  (18) 
0.0

>  <ATG_AP_2_CIS_up>  (18) 
0.0

>  <ATG_AR_TRANS_dn>  (18) 
0.0

>  <ATG_AR_TRANS_up>  (18) 
0.0

>  <ATG_Ahr_CIS_dn>  (18) 
0.0

>  <ATG_Ahr_CIS_up>  (18) 
0.0

>  <ATG_BRE_CIS_up>  (18) 
0.0

>  <ATG_CMV_CIS_dn>  (18) 
0.0

>  <ATG_CMV_CIS_up>  (18) 
1.0

>  <ATG_CRE_CIS_dn>  (18) 
0.0

>  <ATG_CRE_CIS_up>  (18) 
0.0

>  <ATG_C_EBP_CIS_dn>  (18) 
0.0

>  <ATG_C_EBP_CIS_up>  (18) 
0.0

>  <ATG_DR4_LXR_CIS_dn>  (18) 
1.0

>  <ATG_DR4_LXR_CIS_up>  (18) 
0.0

>  <ATG_DR5_CIS_dn>  (18) 
0.0

>  <ATG_DR5_CIS_up>  (18) 
0.0

>  <ATG_EGR_CIS_dn>  (18) 
0.0

>  <ATG_ERE_CIS_dn>  (18) 
0.0

>  <ATG_ERE_CIS_up>  (18) 
1.0

>  <ATG_ERRa_TRANS_dn>  (18) 
0.0

>  <ATG_ERRa_TRANS_up>  (18) 
0.0

>  <ATG_ERRg_TRANS_dn>  (18) 
0.0

>  <ATG_ERRg_TRANS_up>  (18) 
0.0

>  <ATG_E_Box_CIS_dn>  (18) 
0.0

>  <ATG_E_Box_CIS_up>  (18) 
0.0

>  <ATG_Ets_CIS_dn>  (18) 
0.0

>  <ATG_Ets_CIS_up>  (18) 
0.0

>  <ATG_FXR_TRANS_up>  (18) 
0.0

>  <ATG_FoxA2_CIS_dn>  (18) 
0.0

>  <ATG_FoxA2_CIS_up>  (18) 
0.0

>  <ATG_FoxO_CIS_dn>  (18) 
0.0

>  <ATG_FoxO_CIS_up>  (18) 
0.0

>  <ATG_GAL4_TRANS_dn>  (18) 
0.0

>  <ATG_GAL4_TRANS_up>  (18) 
0.0

>  <ATG_GATA_CIS_dn>  (18) 
0.0

>  <ATG_GATA_CIS_up>  (18) 
0.0

>  <ATG_GLI_CIS_up>  (18) 
0.0

>  <ATG_GRE_CIS_dn>  (18) 
0.0

>  <ATG_GR_TRANS_dn>  (18) 
0.0

>  <ATG_GR_TRANS_up>  (18) 
0.0

>  <ATG_HIF1a_CIS_dn>  (18) 
1.0

>  <ATG_HIF1a_CIS_up>  (18) 
0.0

>  <ATG_HNF4a_TRANS_dn>  (18) 
0.0

>  <ATG_HNF4a_TRANS_up>  (18) 
0.0

>  <ATG_HNF6_CIS_dn>  (18) 
0.0

>  <ATG_HNF6_CIS_up>  (18) 
0.0

>  <ATG_HSE_CIS_dn>  (18) 
0.0

>  <ATG_HSE_CIS_up>  (18) 
1.0

>  <ATG_IR1_CIS_dn>  (18) 
1.0

>  <ATG_IR1_CIS_up>  (18) 
0.0

>  <ATG_ISRE_CIS_dn>  (18) 
1.0

>  <ATG_ISRE_CIS_up>  (18) 
0.0

>  <ATG_LXRb_TRANS_up>  (18) 
0.0

>  <ATG_MRE_CIS_dn>  (18) 
0.0

>  <ATG_MRE_CIS_up>  (18) 
1.0

>  <ATG_M_06_CIS_dn>  (18) 
0.0

>  <ATG_M_06_CIS_up>  (18) 
0.0

>  <ATG_M_06_TRANS_dn>  (18) 
0.0

>  <ATG_M_06_TRANS_up>  (18) 
0.0

>  <ATG_M_19_CIS_dn>  (18) 
0.0

>  <ATG_M_19_CIS_up>  (18) 
0.0

>  <ATG_M_19_TRANS_dn>  (18) 
0.0

>  <ATG_M_19_TRANS_up>  (18) 
0.0

>  <ATG_M_32_CIS_dn>  (18) 
0.0

>  <ATG_M_32_CIS_up>  (18) 
0.0

>  <ATG_M_32_TRANS_dn>  (18) 
0.0

>  <ATG_M_32_TRANS_up>  (18) 
0.0

>  <ATG_M_61_CIS_dn>  (18) 
0.0

>  <ATG_M_61_CIS_up>  (18) 
0.0

>  <ATG_M_61_TRANS_dn>  (18) 
0.0

>  <ATG_M_61_TRANS_up>  (18) 
0.0

>  <ATG_Myb_CIS_dn>  (18) 
0.0

>  <ATG_Myb_CIS_up>  (18) 
0.0

>  <ATG_Myc_CIS_dn>  (18) 
0.0

>  <ATG_Myc_CIS_up>  (18) 
0.0

>  <ATG_NFI_CIS_dn>  (18) 
0.0

>  <ATG_NFI_CIS_up>  (18) 
1.0

>  <ATG_NF_kB_CIS_dn>  (18) 
0.0

>  <ATG_NF_kB_CIS_up>  (18) 
0.0

>  <ATG_NRF1_CIS_dn>  (18) 
0.0

>  <ATG_NRF2_ARE_CIS_dn>  (18) 
0.0

>  <ATG_NRF2_ARE_CIS_up>  (18) 
1.0

>  <ATG_NURR1_TRANS_dn>  (18) 
0.0

>  <ATG_Oct_MLP_CIS_dn>  (18) 
0.0

>  <ATG_Oct_MLP_CIS_up>  (18) 
1.0

>  <ATG_PBREM_CIS_dn>  (18) 
0.0

>  <ATG_PBREM_CIS_up>  (18) 
0.0

>  <ATG_PPARa_TRANS_dn>  (18) 
0.0

>  <ATG_PPARa_TRANS_up>  (18) 
0.0

>  <ATG_PPARd_TRANS_dn>  (18) 
0.0

>  <ATG_PPARd_TRANS_up>  (18) 
0.0

>  <ATG_PPARg_TRANS_dn>  (18) 
0.0

>  <ATG_PPARg_TRANS_up>  (18) 
0.0

>  <ATG_PPRE_CIS_dn>  (18) 
0.0

>  <ATG_PPRE_CIS_up>  (18) 
0.0

>  <ATG_PXRE_CIS_dn>  (18) 
0.0

>  <ATG_PXRE_CIS_up>  (18) 
1.0

>  <ATG_PXR_TRANS_dn>  (18) 
0.0

>  <ATG_PXR_TRANS_up>  (18) 
1.0

>  <ATG_Pax6_CIS_dn>  (18) 
0.0

>  <ATG_Pax6_CIS_up>  (18) 
1.0

>  <ATG_RARa_TRANS_dn>  (18) 
1.0

>  <ATG_RARa_TRANS_up>  (18) 
0.0

>  <ATG_RARb_TRANS_dn>  (18) 
1.0

>  <ATG_RARb_TRANS_up>  (18) 
0.0

>  <ATG_RARg_TRANS_dn>  (18) 
0.0

>  <ATG_RARg_TRANS_up>  (18) 
0.0

>  <ATG_RORE_CIS_dn>  (18) 
0.0

>  <ATG_RORE_CIS_up>  (18) 
0.0

>  <ATG_RORb_TRANS_dn>  (18) 
0.0

>  <ATG_RORb_TRANS_up>  (18) 
0.0

>  <ATG_RORg_TRANS_dn>  (18) 
0.0

>  <ATG_RORg_TRANS_up>  (18) 
0.0

>  <ATG_RXRa_TRANS_dn>  (18) 
0.0

>  <ATG_RXRa_TRANS_up>  (18) 
0.0

>  <ATG_RXRb_TRANS_dn>  (18) 
0.0

>  <ATG_RXRb_TRANS_up>  (18) 
1.0

>  <ATG_SREBP_CIS_dn>  (18) 
0.0

>  <ATG_SREBP_CIS_up>  (18) 
1.0

>  <ATG_STAT3_CIS_dn>  (18) 
0.0

>  <ATG_STAT3_CIS_up>  (18) 
0.0

>  <ATG_Sp1_CIS_dn>  (18) 
0.0

>  <ATG_TAL_CIS_dn>  (18) 
0.0

>  <ATG_TAL_CIS_up>  (18) 
0.0

>  <ATG_TA_CIS_dn>  (18) 
0.0

>  <ATG_TA_CIS_up>  (18) 
1.0

>  <ATG_TCF_b_cat_CIS_dn>  (18) 
0.0

>  <ATG_TCF_b_cat_CIS_up>  (18) 
0.0

>  <ATG_TGFb_CIS_dn>  (18) 
0.0

>  <ATG_THRa1_TRANS_dn>  (18) 
0.0

>  <ATG_THRa1_TRANS_up>  (18) 
0.0

>  <ATG_VDRE_CIS_dn>  (18) 
0.0

>  <ATG_VDRE_CIS_up>  (18) 
1.0

>  <ATG_VDR_TRANS_dn>  (18) 
0.0

>  <ATG_VDR_TRANS_up>  (18) 
0.0

>  <ATG_XTT_Cytotoxicity_up>  (18) 
0.0

>  <ATG_Xbp1_CIS_dn>  (18) 
0.0

>  <ATG_Xbp1_CIS_up>  (18) 
1.0

>  <ATG_p53_CIS_dn>  (18) 
0.0

>  <ATG_p53_CIS_up>  (18) 
0.0

>  <BSK_3C_Eselectin_down>  (18) 
1.0

>  <BSK_3C_Eselectin_up>  (18) 
0.0

>  <BSK_3C_HLADR_up>  (18) 
0.0

>  <BSK_3C_ICAM1_down>  (18) 
1.0

>  <BSK_3C_ICAM1_up>  (18) 
0.0

>  <BSK_3C_IL8_down>  (18) 
1.0

>  <BSK_3C_IL8_up>  (18) 
0.0

>  <BSK_3C_MCP1_down>  (18) 
1.0

>  <BSK_3C_MCP1_up>  (18) 
0.0

>  <BSK_3C_MIG_down>  (18) 
1.0

>  <BSK_3C_MIG_up>  (18) 
0.0

>  <BSK_3C_Proliferation_down>  (18) 
1.0

>  <BSK_3C_Proliferation_up>  (18) 
0.0

>  <BSK_3C_SRB_down>  (18) 
1.0

>  <BSK_3C_SRB_up>  (18) 
0.0

>  <BSK_3C_Thrombomodulin_down>  (18) 
0.0

>  <BSK_3C_Thrombomodulin_up>  (18) 
0.0

>  <BSK_3C_TissueFactor_down>  (18) 
1.0

>  <BSK_3C_TissueFactor_up>  (18) 
0.0

>  <BSK_3C_VCAM1_down>  (18) 
1.0

>  <BSK_3C_VCAM1_up>  (18) 
0.0

>  <BSK_3C_Vis_up>  (18) 
0.0

>  <BSK_3C_uPAR_up>  (18) 
0.0

>  <BSK_4H_Eotaxin3_down>  (18) 
1.0

>  <BSK_4H_Eotaxin3_up>  (18) 
0.0

>  <BSK_4H_MCP1_down>  (18) 
1.0

>  <BSK_4H_MCP1_up>  (18) 
0.0

>  <BSK_4H_Pselectin_down>  (18) 
1.0

>  <BSK_4H_Pselectin_up>  (18) 
0.0

>  <BSK_4H_SRB_down>  (18) 
1.0

>  <BSK_4H_SRB_up>  (18) 
0.0

>  <BSK_4H_VCAM1_down>  (18) 
1.0

>  <BSK_4H_VCAM1_up>  (18) 
0.0

>  <BSK_4H_VEGFRII_down>  (18) 
1.0

>  <BSK_4H_VEGFRII_up>  (18) 
0.0

>  <BSK_4H_uPAR_down>  (18) 
1.0

>  <BSK_4H_uPAR_up>  (18) 
0.0

>  <BSK_BE3C_HLADR_down>  (18) 
1.0

>  <BSK_BE3C_HLADR_up>  (18) 
0.0

>  <BSK_BE3C_IL1a_down>  (18) 
0.0

>  <BSK_BE3C_IL1a_up>  (18) 
0.0

>  <BSK_BE3C_IP10_down>  (18) 
0.0

>  <BSK_BE3C_IP10_up>  (18) 
0.0

>  <BSK_BE3C_MIG_down>  (18) 
0.0

>  <BSK_BE3C_MIG_up>  (18) 
0.0

>  <BSK_BE3C_MMP1_down>  (18) 
0.0

>  <BSK_BE3C_MMP1_up>  (18) 
0.0

>  <BSK_BE3C_PAI1_down>  (18) 
0.0

>  <BSK_BE3C_PAI1_up>  (18) 
0.0

>  <BSK_BE3C_SRB_down>  (18) 
0.0

>  <BSK_BE3C_SRB_up>  (18) 
0.0

>  <BSK_BE3C_TGFb1_down>  (18) 
0.0

>  <BSK_BE3C_TGFb1_up>  (18) 
0.0

>  <BSK_BE3C_tPA_down>  (18) 
0.0

>  <BSK_BE3C_tPA_up>  (18) 
0.0

>  <BSK_BE3C_uPAR_down>  (18) 
0.0

>  <BSK_BE3C_uPAR_up>  (18) 
0.0

>  <BSK_BE3C_uPA_down>  (18) 
0.0

>  <BSK_BE3C_uPA_up>  (18) 
0.0

>  <BSK_CASM3C_HLADR_down>  (18) 
1.0

>  <BSK_CASM3C_HLADR_up>  (18) 
0.0

>  <BSK_CASM3C_IL6_down>  (18) 
0.0

>  <BSK_CASM3C_IL6_up>  (18) 
0.0

>  <BSK_CASM3C_IL8_down>  (18) 
0.0

>  <BSK_CASM3C_IL8_up>  (18) 
0.0

>  <BSK_CASM3C_LDLR_down>  (18) 
1.0

>  <BSK_CASM3C_LDLR_up>  (18) 
0.0

>  <BSK_CASM3C_MCP1_down>  (18) 
1.0

>  <BSK_CASM3C_MCP1_up>  (18) 
0.0

>  <BSK_CASM3C_MCSF_down>  (18) 
1.0

>  <BSK_CASM3C_MCSF_up>  (18) 
0.0

>  <BSK_CASM3C_MIG_down>  (18) 
0.0

>  <BSK_CASM3C_MIG_up>  (18) 
0.0

>  <BSK_CASM3C_Proliferation_down>  (18) 
1.0

>  <BSK_CASM3C_Proliferation_up>  (18) 
0.0

>  <BSK_CASM3C_SAA_down>  (18) 
1.0

>  <BSK_CASM3C_SAA_up>  (18) 
0.0

>  <BSK_CASM3C_SRB_down>  (18) 
1.0

>  <BSK_CASM3C_SRB_up>  (18) 
0.0

>  <BSK_CASM3C_Thrombomodulin_down>  (18) 
0.0

>  <BSK_CASM3C_Thrombomodulin_up>  (18) 
1.0

>  <BSK_CASM3C_TissueFactor_down>  (18) 
1.0

>  <BSK_CASM3C_TissueFactor_up>  (18) 
0.0

>  <BSK_CASM3C_VCAM1_down>  (18) 
1.0

>  <BSK_CASM3C_VCAM1_up>  (18) 
0.0

>  <BSK_CASM3C_uPAR_down>  (18) 
1.0

>  <BSK_CASM3C_uPAR_up>  (18) 
0.0

>  <BSK_KF3CT_ICAM1_down>  (18) 
1.0

>  <BSK_KF3CT_ICAM1_up>  (18) 
0.0

>  <BSK_KF3CT_IL1a_down>  (18) 
1.0

>  <BSK_KF3CT_IL1a_up>  (18) 
0.0

>  <BSK_KF3CT_IP10_down>  (18) 
1.0

>  <BSK_KF3CT_IP10_up>  (18) 
0.0

>  <BSK_KF3CT_MCP1_down>  (18) 
1.0

>  <BSK_KF3CT_MCP1_up>  (18) 
0.0

>  <BSK_KF3CT_MMP9_down>  (18) 
1.0

>  <BSK_KF3CT_MMP9_up>  (18) 
0.0

>  <BSK_KF3CT_SRB_down>  (18) 
1.0

>  <BSK_KF3CT_SRB_up>  (18) 
0.0

>  <BSK_KF3CT_TGFb1_down>  (18) 
1.0

>  <BSK_KF3CT_TGFb1_up>  (18) 
0.0

>  <BSK_KF3CT_TIMP2_down>  (18) 
1.0

>  <BSK_KF3CT_TIMP2_up>  (18) 
0.0

>  <BSK_KF3CT_uPA_down>  (18) 
1.0

>  <BSK_KF3CT_uPA_up>  (18) 
0.0

>  <BSK_LPS_CD40_down>  (18) 
1.0

>  <BSK_LPS_CD40_up>  (18) 
0.0

>  <BSK_LPS_Eselectin_down>  (18) 
1.0

>  <BSK_LPS_Eselectin_up>  (18) 
0.0

>  <BSK_LPS_IL1a_down>  (18) 
1.0

>  <BSK_LPS_IL1a_up>  (18) 
0.0

>  <BSK_LPS_IL8_down>  (18) 
1.0

>  <BSK_LPS_IL8_up>  (18) 
0.0

>  <BSK_LPS_MCP1_down>  (18) 
1.0

>  <BSK_LPS_MCP1_up>  (18) 
0.0

>  <BSK_LPS_MCSF_down>  (18) 
1.0

>  <BSK_LPS_MCSF_up>  (18) 
0.0

>  <BSK_LPS_PGE2_down>  (18) 
1.0

>  <BSK_LPS_PGE2_up>  (18) 
0.0

>  <BSK_LPS_SRB_down>  (18) 
1.0

>  <BSK_LPS_SRB_up>  (18) 
0.0

>  <BSK_LPS_TNFa_down>  (18) 
1.0

>  <BSK_LPS_TNFa_up>  (18) 
0.0

>  <BSK_LPS_TissueFactor_down>  (18) 
1.0

>  <BSK_LPS_TissueFactor_up>  (18) 
0.0

>  <BSK_LPS_VCAM1_down>  (18) 
1.0

>  <BSK_LPS_VCAM1_up>  (18) 
0.0

>  <BSK_SAg_CD38_down>  (18) 
1.0

>  <BSK_SAg_CD38_up>  (18) 
0.0

>  <BSK_SAg_CD40_down>  (18) 
1.0

>  <BSK_SAg_CD40_up>  (18) 
0.0

>  <BSK_SAg_CD69_down>  (18) 
1.0

>  <BSK_SAg_CD69_up>  (18) 
0.0

>  <BSK_SAg_Eselectin_down>  (18) 
1.0

>  <BSK_SAg_Eselectin_up>  (18) 
0.0

>  <BSK_SAg_IL8_down>  (18) 
1.0

>  <BSK_SAg_IL8_up>  (18) 
0.0

>  <BSK_SAg_MCP1_down>  (18) 
1.0

>  <BSK_SAg_MCP1_up>  (18) 
0.0

>  <BSK_SAg_MIG_down>  (18) 
1.0

>  <BSK_SAg_MIG_up>  (18) 
0.0

>  <BSK_SAg_PBMCCytotoxicity_down>  (18) 
1.0

>  <BSK_SAg_PBMCCytotoxicity_up>  (18) 
0.0

>  <BSK_SAg_Proliferation_down>  (18) 
1.0

>  <BSK_SAg_Proliferation_up>  (18) 
0.0

>  <BSK_SAg_SRB_down>  (18) 
1.0

>  <BSK_SAg_SRB_up>  (18) 
0.0

>  <BSK_hDFCGF_CollagenIII_down>  (18) 
1.0

>  <BSK_hDFCGF_CollagenIII_up>  (18) 
0.0

>  <BSK_hDFCGF_EGFR_down>  (18) 
0.0

>  <BSK_hDFCGF_EGFR_up>  (18) 
0.0

>  <BSK_hDFCGF_IL8_down>  (18) 
1.0

>  <BSK_hDFCGF_IL8_up>  (18) 
0.0

>  <BSK_hDFCGF_IP10_down>  (18) 
1.0

>  <BSK_hDFCGF_IP10_up>  (18) 
0.0

>  <BSK_hDFCGF_MCSF_down>  (18) 
1.0

>  <BSK_hDFCGF_MCSF_up>  (18) 
0.0

>  <BSK_hDFCGF_MIG_down>  (18) 
1.0

>  <BSK_hDFCGF_MIG_up>  (18) 
0.0

>  <BSK_hDFCGF_MMP1_down>  (18) 
1.0

>  <BSK_hDFCGF_MMP1_up>  (18) 
0.0

>  <BSK_hDFCGF_PAI1_down>  (18) 
1.0

>  <BSK_hDFCGF_PAI1_up>  (18) 
0.0

>  <BSK_hDFCGF_Proliferation_down>  (18) 
1.0

>  <BSK_hDFCGF_Proliferation_up>  (18) 
0.0

>  <BSK_hDFCGF_SRB_down>  (18) 
1.0

>  <BSK_hDFCGF_SRB_up>  (18) 
0.0

>  <BSK_hDFCGF_TIMP1_down>  (18) 
1.0

>  <BSK_hDFCGF_TIMP1_up>  (18) 
0.0

>  <BSK_hDFCGF_VCAM1_down>  (18) 
1.0

>  <BSK_hDFCGF_VCAM1_up>  (18) 
0.0

>  <CEETOX_H295R_11DCORT_dn>  (18) 
0.0

>  <CEETOX_H295R_11DCORT_up>  (18) 
0.0

>  <CEETOX_H295R_ANDR_dn>  (18) 
0.0

>  <CEETOX_H295R_ANDR_up>  (18) 
0.0

>  <CEETOX_H295R_CORTIC_dn>  (18) 
0.0

>  <CEETOX_H295R_CORTIC_up>  (18) 
0.0

>  <CEETOX_H295R_CORTISOL_dn>  (18) 
0.0

>  <CEETOX_H295R_CORTISOL_up>  (18) 
0.0

>  <CEETOX_H295R_DOC_dn>  (18) 
0.0

>  <CEETOX_H295R_DOC_up>  (18) 
0.0

>  <CEETOX_H295R_ESTRADIOL_dn>  (18) 
0.0

>  <CEETOX_H295R_ESTRADIOL_up>  (18) 
0.0

>  <CEETOX_H295R_ESTRONE_dn>  (18) 
0.0

>  <CEETOX_H295R_ESTRONE_up>  (18) 
0.0

>  <CEETOX_H295R_MTT_cell_viability_dn>  (18) 
1.0

>  <CEETOX_H295R_MTT_cell_viability_up>  (18) 
0.0

>  <CEETOX_H295R_OHPREG_dn>  (18) 
0.0

>  <CEETOX_H295R_OHPREG_up>  (18) 
0.0

>  <CEETOX_H295R_OHPROG_dn>  (18) 
0.0

>  <CEETOX_H295R_OHPROG_up>  (18) 
0.0

>  <CEETOX_H295R_PROG_dn>  (18) 
0.0

>  <CEETOX_H295R_PROG_up>  (18) 
0.0

>  <CEETOX_H295R_TESTO_dn>  (18) 
0.0

>  <CEETOX_H295R_TESTO_up>  (18) 
0.0

>  <NHEERL_ZF_144hpf_TERATOSCORE_up>  (18) 
1.0

>  <NVS_ADME_hCYP1A1>  (18) 
1.0

>  <NVS_ADME_hCYP1A1_Activator>  (18) 
0.0

>  <NVS_ENZ_hEphA1>  (18) 
0.0

>  <NVS_ENZ_hEphA1_Activator>  (18) 
0.0

>  <NVS_ENZ_hFGFR1>  (18) 
0.0

>  <NVS_ENZ_hFGFR1_Activator>  (18) 
0.0

>  <NVS_ENZ_hJak2>  (18) 
0.0

>  <NVS_ENZ_hJak2_Activator>  (18) 
0.0

>  <NVS_ENZ_hPPM1A>  (18) 
0.0

>  <NVS_ENZ_hPPM1A_Activator>  (18) 
0.0

>  <NVS_ENZ_hPPP1CA>  (18) 
0.0

>  <NVS_ENZ_hPPP1CA_Activator>  (18) 
0.0

>  <NVS_ENZ_hTie2>  (18) 
0.0

>  <NVS_ENZ_hTie2_Activator>  (18) 
0.0

>  <NVS_ENZ_hVEGFR2>  (18) 
0.0

>  <NVS_ENZ_hVEGFR2_Activator>  (18) 
0.0

>  <NVS_ENZ_hVEGFR3>  (18) 
0.0

>  <NVS_ENZ_hVEGFR3_Activator>  (18) 
0.0

>  <NVS_ENZ_oCOX1>  (18) 
0.0

>  <NVS_ENZ_oCOX1_Activator>  (18) 
0.0

>  <NVS_GPCR_hAdrb1>  (18) 
0.0

>  <NVS_GPCR_hDRD1>  (18) 
0.0

>  <NVS_GPCR_hDRD2s>  (18) 
0.0

>  <NVS_GPCR_hOpiate_mu>  (18) 
0.0

>  <NVS_IC_rCaChN>  (18) 
0.0

>  <NVS_IC_rKAR>  (18) 
0.0

>  <NVS_LGIC_bGABAR_Agonist>  (18) 
0.0

>  <NVS_LGIC_rAMPA>  (18) 
0.0

>  <NVS_NR_hPXR>  (18) 
0.0

>  <OT_AR_ARSRC1_0480>  (18) 
1.0

>  <OT_AR_ARSRC1_0960>  (18) 
1.0

>  <OT_ER_ERaERa_0480>  (18) 
1.0

>  <OT_ER_ERaERa_1440>  (18) 
1.0

>  <OT_ER_ERaERb_0480>  (18) 
1.0

>  <OT_ER_ERbERb_0480>  (18) 
1.0

>  <OT_ER_ERbERb_1440>  (18) 
1.0

>  <OT_ERa_EREGFP_0480>  (18) 
1.0

>  <TOX21_AP1_BLA_Agonist_ch1>  (18) 
1.0

>  <TOX21_AP1_BLA_Agonist_ch2>  (18) 
0.0

>  <TOX21_AP1_BLA_Agonist_ratio>  (18) 
1.0

>  <TOX21_AP1_BLA_Agonist_viability>  (18) 
1.0

>  <TOX21_ARE_BLA_Agonist_ch1>  (18) 
1.0

>  <TOX21_ARE_BLA_Agonist_ch2>  (18) 
0.0

>  <TOX21_ARE_BLA_agonist_viability>  (18) 
1.0

>  <TOX21_AR_BLA_Agonist_ch1>  (18) 
0.0

>  <TOX21_AR_BLA_Agonist_ch2>  (18) 
0.0

>  <TOX21_AR_BLA_Agonist_ratio>  (18) 
0.0

>  <TOX21_AR_BLA_Antagonist_ch1>  (18) 
0.0

>  <TOX21_AR_BLA_Antagonist_ch2>  (18) 
0.0

>  <TOX21_AR_BLA_Antagonist_ratio>  (18) 
1.0

>  <TOX21_AR_BLA_Antagonist_viability>  (18) 
1.0

>  <TOX21_AR_LUC_MDAKB2_Agonist>  (18) 
0.0

>  <TOX21_AR_LUC_MDAKB2_Agonist_3uM_Nilutamide>  (18) 
0.0

>  <TOX21_AR_LUC_MDAKB2_Agonist_3uM_Nilutamide_viability>  (18) 
0.0

>  <TOX21_AR_LUC_MDAKB2_Antagonist_0.5nM_R1881>  (18) 
1.0

>  <TOX21_AR_LUC_MDAKB2_Antagonist_0.5nM_R1881_viability>  (18) 
0.0

>  <TOX21_AR_LUC_MDAKB2_Antagonist_10nM_R1881>  (18) 
0.0

>  <TOX21_AR_LUC_MDAKB2_Antagonist_10nM_R1881_viability>  (18) 
0.0

>  <TOX21_AhR_LUC_Agonist>  (18) 
0.0

>  <TOX21_Aromatase_Inhibition>  (18) 
1.0

>  <TOX21_Aromatase_Inhibition_viability>  (18) 
0.0

>  <TOX21_AutoFluor_HEK293_Cell_blue>  (18) 
0.0

>  <TOX21_AutoFluor_HEK293_Cell_green>  (18) 
0.0

>  <TOX21_AutoFluor_HEK293_Cell_red>  (18) 
0.0

>  <TOX21_AutoFluor_HEK293_Media_blue>  (18) 
0.0

>  <TOX21_AutoFluor_HEK293_Media_green>  (18) 
0.0

>  <TOX21_AutoFluor_HEK293_Media_red>  (18) 
0.0

>  <TOX21_AutoFluor_HEPG2_Cell_blue>  (18) 
0.0

>  <TOX21_AutoFluor_HEPG2_Cell_green>  (18) 
0.0

>  <TOX21_AutoFluor_HEPG2_Cell_red>  (18) 
0.0

>  <TOX21_AutoFluor_HEPG2_Media_blue>  (18) 
0.0

>  <TOX21_AutoFluor_HEPG2_Media_green>  (18) 
0.0

>  <TOX21_AutoFluor_HEPG2_Media_red>  (18) 
0.0

>  <TOX21_CAR_Agonist>  (18) 
1.0

>  <TOX21_CAR_Antagonist>  (18) 
0.0

>  <TOX21_CAR_Antagonist_viability>  (18) 
0.0

>  <TOX21_CASP3_CHO>  (18) 
0.0

>  <TOX21_CASP3_CHO_viability>  (18) 
1.0

>  <TOX21_CASP3_HEPG2>  (18) 
0.0

>  <TOX21_CASP3_HEPG2_viability>  (18) 
0.0

>  <TOX21_DT40>  (18) 
1.0

>  <TOX21_DT40_100>  (18) 
1.0

>  <TOX21_DT40_657>  (18) 
1.0

>  <TOX21_ELG1_LUC_Agonist>  (18) 
0.0

>  <TOX21_ELG1_LUC_Agonist_viability>  (18) 
0.0

>  <TOX21_ERR_Agonist>  (18) 
0.0

>  <TOX21_ERR_Antagonist>  (18) 
1.0

>  <TOX21_ERa_BLA_Agonist_ch1>  (18) 
1.0

>  <TOX21_ERa_BLA_Agonist_ch2>  (18) 
1.0

>  <TOX21_ERa_BLA_Agonist_ratio>  (18) 
1.0

>  <TOX21_ERa_BLA_Antagonist_ch1>  (18) 
1.0

>  <TOX21_ERa_BLA_Antagonist_ch2>  (18) 
0.0

>  <TOX21_ERa_BLA_Antagonist_ratio>  (18) 
1.0

>  <TOX21_ERa_BLA_Antagonist_viability>  (18) 
0.0

>  <TOX21_ERa_LUC_VM7_Agonist>  (18) 
1.0

>  <TOX21_ERa_LUC_VM7_Agonist_10nM_ICI182780>  (18) 
0.0

>  <TOX21_ERa_LUC_VM7_Agonist_10nM_ICI182780_viability>  (18) 
1.0

>  <TOX21_ERa_LUC_VM7_Antagonist_0.1nM_E2>  (18) 
0.0

>  <TOX21_ERa_LUC_VM7_Antagonist_0.1nM_E2_viability>  (18) 
0.0

>  <TOX21_ERa_LUC_VM7_Antagonist_0.5nM_E2>  (18) 
0.0

>  <TOX21_ERa_LUC_VM7_Antagonist_0.5nM_E2_viability>  (18) 
0.0

>  <TOX21_ERb_BLA_Agonist_ch1>  (18) 
1.0

>  <TOX21_ERb_BLA_Agonist_ch2>  (18) 
0.0

>  <TOX21_ERb_BLA_Agonist_ratio>  (18) 
0.0

>  <TOX21_ERb_BLA_Agonist_viability>  (18) 
1.0

>  <TOX21_ERb_BLA_Antagonist_ch1>  (18) 
0.0

>  <TOX21_ERb_BLA_Antagonist_ch2>  (18) 
1.0

>  <TOX21_ERb_BLA_Antagonist_ratio>  (18) 
1.0

>  <TOX21_ERb_BLA_Antagonist_viability>  (18) 
1.0

>  <TOX21_ESRE_BLA_ch1>  (18) 
1.0

>  <TOX21_ESRE_BLA_ch2>  (18) 
0.0

>  <TOX21_ESRE_BLA_ratio>  (18) 
0.0

>  <TOX21_ESRE_BLA_viability>  (18) 
1.0

>  <TOX21_FXR_BLA_Antagonist_ch1>  (18) 
1.0

>  <TOX21_FXR_BLA_Antagonist_ch2>  (18) 
1.0

>  <TOX21_FXR_BLA_agonist_ch1>  (18) 
0.0

>  <TOX21_FXR_BLA_agonist_ch2>  (18) 
0.0

>  <TOX21_FXR_BLA_agonist_ratio>  (18) 
0.0

>  <TOX21_FXR_BLA_agonist_viability>  (18) 
1.0

>  <TOX21_FXR_BLA_antagonist_ratio>  (18) 
1.0

>  <TOX21_FXR_BLA_antagonist_viability>  (18) 
0.0

>  <TOX21_GR_BLA_Agonist_ch1>  (18) 
1.0

>  <TOX21_GR_BLA_Agonist_ch2>  (18) 
0.0

>  <TOX21_GR_BLA_Agonist_ratio>  (18) 
1.0

>  <TOX21_GR_BLA_Antagonist_ch1>  (18) 
0.0

>  <TOX21_GR_BLA_Antagonist_ch2>  (18) 
1.0

>  <TOX21_GR_BLA_Antagonist_ratio>  (18) 
1.0

>  <TOX21_GR_BLA_Antagonist_viability>  (18) 
1.0

>  <TOX21_H2AX_HTRF_CHO_Agonist_ch1>  (18) 
0.0

>  <TOX21_H2AX_HTRF_CHO_Agonist_ch2>  (18) 
0.0

>  <TOX21_H2AX_HTRF_CHO_Agonist_ratio>  (18) 
1.0

>  <TOX21_H2AX_HTRF_CHO_viability>  (18) 
1.0

>  <TOX21_HDAC_Inhibition>  (18) 
0.0

>  <TOX21_HDAC_Inhibition_viability>  (18) 
0.0

>  <TOX21_HRE_BLA_Agonist_ch1>  (18) 
1.0

>  <TOX21_HRE_BLA_Agonist_ch2>  (18) 
0.0

>  <TOX21_HRE_BLA_Agonist_ratio>  (18) 
1.0

>  <TOX21_HRE_BLA_Agonist_viability>  (18) 
1.0

>  <TOX21_HSE_BLA_agonist_ch1>  (18) 
1.0

>  <TOX21_HSE_BLA_agonist_ch2>  (18) 
0.0

>  <TOX21_HSE_BLA_agonist_ratio>  (18) 
0.0

>  <TOX21_HSE_BLA_agonist_viability>  (18) 
1.0

>  <TOX21_LUC_Biochem>  (18) 
0.0

>  <TOX21_MMP_fitc>  (18) 
0.0

>  <TOX21_MMP_ratio_down>  (18) 
1.0

>  <TOX21_MMP_ratio_up>  (18) 
0.0

>  <TOX21_MMP_rhodamine>  (18) 
1.0

>  <TOX21_MMP_viability>  (18) 
0.0

>  <TOX21_NFkB_BLA_agonist_ch1>  (18) 
1.0

>  <TOX21_NFkB_BLA_agonist_ch2>  (18) 
0.0

>  <TOX21_NFkB_BLA_agonist_ratio>  (18) 
0.0

>  <TOX21_NFkB_BLA_agonist_viability>  (18) 
1.0

>  <TOX21_PGC_ERR_Agonist>  (18) 
0.0

>  <TOX21_PGC_ERR_Antagonist>  (18) 
1.0

>  <TOX21_PGC_ERR_viability>  (18) 
0.0

>  <TOX21_PPARd_BLA_Agonist_viability>  (18) 
1.0

>  <TOX21_PPARd_BLA_Antagonist_ch1>  (18) 
0.0

>  <TOX21_PPARd_BLA_Antagonist_ch2>  (18) 
0.0

>  <TOX21_PPARd_BLA_agonist_ch1>  (18) 
0.0

>  <TOX21_PPARd_BLA_agonist_ch2>  (18) 
0.0

>  <TOX21_PPARd_BLA_agonist_ratio>  (18) 
0.0

>  <TOX21_PPARd_BLA_antagonist_ratio>  (18) 
0.0

>  <TOX21_PPARd_BLA_antagonist_viability>  (18) 
0.0

>  <TOX21_PPARg_BLA_Agonist_ch1>  (18) 
0.0

>  <TOX21_PPARg_BLA_Agonist_ch2>  (18) 
0.0

>  <TOX21_PPARg_BLA_Agonist_ratio>  (18) 
0.0

>  <TOX21_PPARg_BLA_Antagonist_ch1>  (18) 
0.0

>  <TOX21_PPARg_BLA_Antagonist_ch2>  (18) 
0.0

>  <TOX21_PPARg_BLA_antagonist_ratio>  (18) 
0.0

>  <TOX21_PPARg_BLA_antagonist_viability>  (18) 
1.0

>  <TOX21_PR_BLA_Agonist_ch1>  (18) 
1.0

>  <TOX21_PR_BLA_Agonist_ch2>  (18) 
0.0

>  <TOX21_PR_BLA_Agonist_ratio>  (18) 
0.0

>  <TOX21_PR_BLA_Antagonist_ch1>  (18) 
1.0

>  <TOX21_PR_BLA_Antagonist_ch2>  (18) 
1.0

>  <TOX21_PR_BLA_Antagonist_ratio>  (18) 
1.0

>  <TOX21_PR_BLA_Antagonist_viability>  (18) 
1.0

>  <TOX21_PR_BLA_Followup_Agonist_ch1>  (18) 
0.0

>  <TOX21_PR_BLA_Followup_Agonist_ch2>  (18) 
1.0

>  <TOX21_PR_BLA_Followup_Agonist_ratio>  (18) 
0.0

>  <TOX21_PR_BLA_Followup_Agonist_viability>  (18) 
1.0

>  <TOX21_PR_BLA_Followup_Antagonist_ch1>  (18) 
0.0

>  <TOX21_PR_BLA_Followup_Antagonist_ch2>  (18) 
0.0

>  <TOX21_PR_BLA_Followup_Antagonist_ratio>  (18) 
1.0

>  <TOX21_PR_BLA_Followup_Antagonist_viability>  (18) 
1.0

>  <TOX21_PR_LUC_Followup_Agonist>  (18) 
1.0

>  <TOX21_PR_LUC_Followup_Agonist_viability>  (18) 
1.0

>  <TOX21_PR_LUC_Followup_Antagonist>  (18) 
1.0

>  <TOX21_PR_LUC_Followup_Antagonist_viability>  (18) 
0.0

>  <TOX21_PXR_Agonist>  (18) 
0.0

>  <TOX21_PXR_viability>  (18) 
1.0

>  <TOX21_RAR_LUC_Agonist>  (18) 
0.0

>  <TOX21_RAR_LUC_Agonist_viability>  (18) 
1.0

>  <TOX21_RAR_LUC_Antagonist_viability>  (18) 
0.0

>  <TOX21_RORg_LUC_CHO_Antagonist>  (18) 
1.0

>  <TOX21_RORg_LUC_CHO_Antagonist_viability>  (18) 
1.0

>  <TOX21_RT_HEK293_FLO_00hr_viability>  (18) 
1.0

>  <TOX21_RT_HEK293_FLO_08hr_viability>  (18) 
1.0

>  <TOX21_RT_HEK293_FLO_16hr_viability>  (18) 
1.0

>  <TOX21_RT_HEK293_FLO_24hr_viability>  (18) 
1.0

>  <TOX21_RT_HEK293_FLO_32hr_viability>  (18) 
1.0

>  <TOX21_RT_HEK293_FLO_40hr_viability>  (18) 
1.0

>  <TOX21_RT_HEK293_GLO_00hr_viability>  (18) 
0.0

>  <TOX21_RT_HEK293_GLO_08hr_viability>  (18) 
1.0

>  <TOX21_RT_HEK293_GLO_16hr_viability>  (18) 
1.0

>  <TOX21_RT_HEK293_GLO_24hr_viability>  (18) 
1.0

>  <TOX21_RT_HEK293_GLO_32hr_viability>  (18) 
1.0

>  <TOX21_RT_HEK293_GLO_40hr_viability>  (18) 
1.0

>  <TOX21_RT_HEPG2_FLO_00hr_ctrl_viability>  (18) 
0.0

>  <TOX21_RT_HEPG2_FLO_08hr_viability>  (18) 
0.0

>  <TOX21_RT_HEPG2_FLO_16hr_ctrl_viability>  (18) 
0.0

>  <TOX21_RT_HEPG2_FLO_24hr_viability>  (18) 
0.0

>  <TOX21_RT_HEPG2_FLO_32hr_ctrl_viability>  (18) 
0.0

>  <TOX21_RT_HEPG2_GLO_00hr_ctrl_viability>  (18) 
0.0

>  <TOX21_RT_HEPG2_GLO_08hr_ctrl_viability>  (18) 
0.0

>  <TOX21_RT_HEPG2_GLO_16hr_ctrl_viability>  (18) 
0.0

>  <TOX21_RT_HEPG2_GLO_24hr_ctrl_viability>  (18) 
0.0

>  <TOX21_RT_HEPG2_GLO_32hr_ctrl_viability>  (18) 
0.0

>  <TOX21_RT_HEPG2_GLO_40hr_viability>  (18) 
0.0

>  <TOX21_RXR_BLA_Agonist_ch1>  (18) 
1.0

>  <TOX21_RXR_BLA_Agonist_ch2>  (18) 
0.0

>  <TOX21_RXR_BLA_Agonist_ratio>  (18) 
1.0

>  <TOX21_RXR_BLA_Agonist_viability>  (18) 
1.0

>  <TOX21_SBE_BLA_Agonist_ch1>  (18) 
0.0

>  <TOX21_SBE_BLA_Agonist_ch2>  (18) 
0.0

>  <TOX21_SBE_BLA_Agonist_ratio>  (18) 
0.0

>  <TOX21_SBE_BLA_Agonist_viability>  (18) 
1.0

>  <TOX21_SBE_BLA_Antagonist_ch1>  (18) 
0.0

>  <TOX21_SBE_BLA_Antagonist_ch2>  (18) 
0.0

>  <TOX21_SBE_BLA_Antagonist_ratio>  (18) 
0.0

>  <TOX21_SBE_BLA_Antagonist_viability>  (18) 
0.0

>  <TOX21_SSH_3T3_GLI3_Agonist>  (18) 
0.0

>  <TOX21_SSH_3T3_GLI3_Agonist_viability>  (18) 
1.0

>  <TOX21_SSH_3T3_GLI3_Antagonist>  (18) 
0.0

>  <TOX21_SSH_3T3_GLI3_Antagonist_viability>  (18) 
0.0

>  <TOX21_TRHR_HEK293_Agonist>  (18) 
0.0

>  <TOX21_TRHR_HEK293_Antagonist>  (18) 
0.0

>  <TOX21_TR_LUC_GH3_Agonist>  (18) 
0.0

>  <TOX21_TR_LUC_GH3_Antagonist>  (18) 
1.0

>  <TOX21_TR_LUC_GH3_Antagonist_viability>  (18) 
1.0

>  <TOX21_TSHR_Agonist_ch2>  (18) 
0.0

>  <TOX21_TSHR_Antagonist_ch2>  (18) 
0.0

>  <TOX21_TSHR_Antagonist_ratio>  (18) 
0.0

>  <TOX21_TSHR_HTRF_Agonist_ch1>  (18) 
1.0

>  <TOX21_TSHR_HTRF_Antagonist_ch1>  (18) 
0.0

>  <TOX21_TSHR_wt_HTRF_ch1>  (18) 
0.0

>  <TOX21_TSHR_wt_ch2>  (18) 
0.0

>  <TOX21_TSHR_wt_ratio>  (18) 
0.0

>  <TOX21_VDR_BLA_Agonist_viability>  (18) 
1.0

>  <TOX21_VDR_BLA_Antagonist_ch1>  (18) 
0.0

>  <TOX21_VDR_BLA_Antagonist_ch2>  (18) 
0.0

>  <TOX21_VDR_BLA_agonist_ch1>  (18) 
0.0

>  <TOX21_VDR_BLA_agonist_ch2>  (18) 
0.0

>  <TOX21_VDR_BLA_agonist_ratio>  (18) 
0.0

>  <TOX21_VDR_BLA_antagonist_ratio>  (18) 
0.0

>  <TOX21_VDR_BLA_antagonist_viability>  (18) 
1.0

>  <TOX21_p53_BLA_p1_ch1>  (18) 
1.0

>  <TOX21_p53_BLA_p1_ch2>  (18) 
0.0

>  <TOX21_p53_BLA_p1_ratio>  (18) 
1.0

>  <TOX21_p53_BLA_p1_viability>  (18) 
1.0

>  <TOX21_p53_BLA_p2_ch1>  (18) 
1.0

>  <TOX21_p53_BLA_p2_ch2>  (18) 
0.0

>  <TOX21_p53_BLA_p2_ratio>  (18) 
1.0

>  <TOX21_p53_BLA_p2_viability>  (18) 
1.0

>  <TOX21_p53_BLA_p3_ch1>  (18) 
1.0

>  <TOX21_p53_BLA_p3_ch2>  (18) 
0.0

>  <TOX21_p53_BLA_p3_ratio>  (18) 
1.0

>  <TOX21_p53_BLA_p4_ch1>  (18) 
1.0

>  <TOX21_p53_BLA_p4_ch2>  (18) 
0.0

>  <TOX21_p53_BLA_p4_ratio>  (18) 
1.0

>  <TOX21_p53_BLA_p4_viability>  (18) 
1.0

>  <TOX21_p53_BLA_p5_ch1>  (18) 
1.0

>  <TOX21_p53_BLA_p5_ch2>  (18) 
0.0

>  <TOX21_p53_BLA_p5_ratio>  (18) 
1.0

>  <TOX21_p53_BLA_p5_viability>  (18) 
1.0

>  <Tanguay_ZF_120hpf_AXIS_up>  (18) 
0.0

>  <Tanguay_ZF_120hpf_ActivityScore>  (18) 
0.0

>  <Tanguay_ZF_120hpf_BRAI_up>  (18) 
0.0

>  <Tanguay_ZF_120hpf_CFIN_up>  (18) 
0.0

>  <Tanguay_ZF_120hpf_CIRC_up>  (18) 
0.0

>  <Tanguay_ZF_120hpf_EYE_up>  (18) 
0.0

>  <Tanguay_ZF_120hpf_JAW_up>  (18) 
0.0

>  <Tanguay_ZF_120hpf_MORT_up>  (18) 
0.0

>  <Tanguay_ZF_120hpf_NC_up>  (18) 
0.0

>  <Tanguay_ZF_120hpf_OTIC_up>  (18) 
0.0

>  <Tanguay_ZF_120hpf_PE_up>  (18) 
0.0

>  <Tanguay_ZF_120hpf_PFIN_up>  (18) 
0.0

>  <Tanguay_ZF_120hpf_PIG_up>  (18) 
0.0

>  <Tanguay_ZF_120hpf_SNOU_up>  (18) 
0.0

>  <Tanguay_ZF_120hpf_SOMI_up>  (18) 
0.0

>  <Tanguay_ZF_120hpf_SWIM_up>  (18) 
0.0

>  <Tanguay_ZF_120hpf_TRUN_up>  (18) 
0.0

>  <Tanguay_ZF_120hpf_TR_up>  (18) 
0.0

>  <Tanguay_ZF_120hpf_YSE_up>  (18) 
0.0

>  <UPITT_HCI_U2OS_AR_TIF2_Nucleoli_Agonist>  (18) 
0.0

>  <UPITT_HCI_U2OS_AR_TIF2_Nucleoli_Antagonist>  (18) 
1.0

>  <UPITT_HCI_U2OS_AR_TIF2_Nucleoli_Cytoplasm_Ratio_Agonist>  (18) 
0.0

>  <UPITT_HCI_U2OS_AR_TIF2_Nucleoli_Cytoplasm_Ratio_Antagonist>  (18) 
1.0

>  <NVS_NR_mERa>  (18) 
1.0

$$$$

     RDKit          3D

 16 17  0  0  0  0  0  0  0  0999 V2000
    0.0000    0.0000    0.0000 C   0  0  0  0  0  0  0  0  0  0  0  0
    0.0000    0.0000    0.0000 C   0  0  0  0  0  0  0  0  0  0  0  0
    0.0000    0.0000    0.0000 C   0  0  0  0  0  0  0  0  0  0  0  0
    0.0000    0.0000    0.0000 C   0  0  0  0  0  0  0  0  0  0  0  0
    0.0000    0.0000    0.0000 C   0  0  0  0  0  0  0  0  0  0  0  0
    0.0000    0.0000    0.0000 C   0  0  0  0  0  0  0  0  0  0  0  0
    0.0000    0.0000    0.0000 C   0  0  0  0  0  0  0  0  0  0  0  0
    0.0000    0.0000    0.0000 C   0  0  0  0  0  0  0  0  0  0  0  0
    0.0000    0.0000    0.0000 C   0  0  0  0  0  0  0  0  0  0  0  0
    0.0000    0.0000    0.0000 C   0  0  0  0  0  0  0  0  0  0  0  0
    0.0000    0.0000    0.0000 C   0  0  0  0  0  0  0  0  0  0  0  0
    0.0000    0.0000    0.0000 C   0  0  0  0  0  0  0  0  0  0  0  0
    0.0000    0.0000    0.0000 C   0  0  0  0  0  0  0  0  0  0  0  0
    0.0000    0.0000    0.0000 C   0  0  0  0  0  0  0  0  0  0  0  0
    0.0000    0.0000    0.0000 C   0  0  0  0  0  0  0  0  0  0  0  0
    0.0000    0.0000    0.0000 O   0  0  0  0  0  0  0  0  0  0  0  0
  1  2  1  0
  2  3  1  0
  2  4  1  0
  4  5  2  0
  5  6  1  0
  6  7  2  0
  7  8  1  0
  8  9  2  0
  2 10  1  0
 10 11  2  0
 11 12  1  0
 12 13  2  0
 13 14  1  0
 14 15  2  0
 13 16  1  0
  9  4  1  0
 15 10  1  0
M  END
>  <CASRN>  (19) 
599-64-4

>  <Name>  (19) 
p-Cumylphenol

>  <Active>  (19) 
2

>  <Inactive>  (19) 
0

>  <Bioactivity>  (19) 
Active

>  <Min LEL>  (19) 
20.0

>  <Max HDT>  (19) 
nan

>  <Class>  (19) 
1

>  <Code>  (19) 
C599644

>  <NVS_NR_hER>  (19) 
1.0

>  <NVS_NR_cAR>  (19) 
1.0

>  <NVS_NR_hAR>  (19) 
1.0

>  <NVS_NR_hGR>  (19) 
1.0

>  <NVS_NR_hPR>  (19) 
1.0

>  <NVS_NR_rAR>  (19) 
1.0

>  <OT_ER_ERaERb_1440>  (19) 
1.0

>  <OT_FXR_FXRSRC1_0480>  (19) 
1.0

>  <OT_PPARg_PPARgSRC1_1440>  (19) 
0.0

>  <OT_FXR_FXRSRC1_1440>  (19) 
1.0

>  <OT_NURR1_NURR1RXRa_0480>  (19) 
0.0

>  <OT_NURR1_NURR1RXRa_1440>  (19) 
0.0

>  <OT_PPARg_PPARgSRC1_0480>  (19) 
0.0

>  <OT_AR_ARELUC_AG_1440>  (19) 
0.0

>  <OT_ERa_EREGFP_0120>  (19) 
1.0

>  <BSK_3C_HLADR_down>  (19) 
1.0

>  <BSK_3C_Vis_down>  (19) 
1.0

>  <BSK_3C_uPAR_down>  (19) 
1.0

>  <ATG_CAR_TRANS_up>  (19) 
0.0

>  <ATG_E2F_CIS_dn>  (19) 
0.0

>  <ATG_EGR_CIS_up>  (19) 
1.0

>  <ATG_ERa_TRANS_dn>  (19) 
0.0

>  <ATG_ERa_TRANS_up>  (19) 
1.0

>  <ATG_FXR_TRANS_dn>  (19) 
0.0

>  <ATG_GLI_CIS_dn>  (19) 
0.0

>  <ATG_GRE_CIS_up>  (19) 
0.0

>  <ATG_LXRa_TRANS_dn>  (19) 
0.0

>  <ATG_LXRa_TRANS_up>  (19) 
0.0

>  <ATG_NRF1_CIS_up>  (19) 
0.0

>  <ATG_NURR1_TRANS_up>  (19) 
0.0

>  <ATG_Sox_CIS_dn>  (19) 
0.0

>  <ATG_Sox_CIS_up>  (19) 
0.0

>  <ATG_Sp1_CIS_up>  (19) 
1.0

>  <ATG_TGFb_CIS_up>  (19) 
0.0

>  <TOX21_ARE_BLA_agonist_ratio>  (19) 
1.0

>  <TOX21_RAR_LUC_Antagonist>  (19) 
1.0

>  <ATG_LXRb_TRANS_dn>  (19) 
0.0

>  <ATG_CAR_TRANS_dn>  (19) 
0.0

>  <ATG_BRE_CIS_dn>  (19) 
0.0

>  <ATG_E2F_CIS_up>  (19) 
0.0

>  <TOX21_TSHR_Agonist_ratio>  (19) 
1.0

>  <ACEA_ER_80hr>  (19) 
1.0

>  <TOX21_CAR_Agonist_viabillity>  (19) 
1.0

>  <TOX21_PR_BLA_Agonist_viability>  (19) 
1.0

>  <TOX21_RT_HEPG2_FLO_40hr_ctrl_viability>  (19) 
1.0

>  <TOX21_AhR_LUC_Agonist_viability>  (19) 
1.0

>  <TOX21_ERR_viability>  (19) 
1.0

>  <TOX21_p53_BLA_p3_viability>  (19) 
1.0

>  <NVS_NR_bER>  (19) 
1.0

>  <ACEA_AR_agonist_80hr>  (19) 
0.0

>  <ACEA_AR_agonist_AUC_viability>  (19) 
1.0

>  <ACEA_AR_antagonist_80hr>  (19) 
1.0

>  <ACEA_AR_antagonist_AUC_viability>  (19) 
1.0

>  <ACEA_ER_AUC_viability>  (19) 
1.0

>  <APR_HepG2_CellCycleArrest_24h_dn>  (19) 
1.0

>  <APR_HepG2_CellCycleArrest_24h_up>  (19) 
0.0

>  <APR_HepG2_CellCycleArrest_72h_dn>  (19) 
0.0

>  <APR_HepG2_CellCycleArrest_72h_up>  (19) 
0.0

>  <APR_HepG2_CellLoss_24h_dn>  (19) 
1.0

>  <APR_HepG2_CellLoss_24h_up>  (19) 
0.0

>  <APR_HepG2_CellLoss_72h_dn>  (19) 
1.0

>  <APR_HepG2_CellLoss_72h_up>  (19) 
0.0

>  <APR_HepG2_MicrotubuleCSK_24h_dn>  (19) 
0.0

>  <APR_HepG2_MicrotubuleCSK_24h_up>  (19) 
0.0

>  <APR_HepG2_MicrotubuleCSK_72h_dn>  (19) 
0.0

>  <APR_HepG2_MicrotubuleCSK_72h_up>  (19) 
0.0

>  <APR_HepG2_MitoMass_24h_dn>  (19) 
0.0

>  <APR_HepG2_MitoMass_24h_up>  (19) 
0.0

>  <APR_HepG2_MitoMass_72h_dn>  (19) 
0.0

>  <APR_HepG2_MitoMass_72h_up>  (19) 
0.0

>  <APR_HepG2_MitoMembPot_24h_dn>  (19) 
0.0

>  <APR_HepG2_MitoMembPot_24h_up>  (19) 
0.0

>  <APR_HepG2_MitoMembPot_72h_dn>  (19) 
0.0

>  <APR_HepG2_MitoMembPot_72h_up>  (19) 
0.0

>  <APR_HepG2_MitoticArrest_24h_dn>  (19) 
0.0

>  <APR_HepG2_MitoticArrest_24h_up>  (19) 
1.0

>  <APR_HepG2_MitoticArrest_72h_dn>  (19) 
0.0

>  <APR_HepG2_MitoticArrest_72h_up>  (19) 
0.0

>  <APR_HepG2_NuclearSize_24h_dn>  (19) 
0.0

>  <APR_HepG2_NuclearSize_24h_up>  (19) 
0.0

>  <APR_HepG2_NuclearSize_72h_dn>  (19) 
0.0

>  <APR_HepG2_NuclearSize_72h_up>  (19) 
0.0

>  <APR_HepG2_OxidativeStress_24h_dn>  (19) 
0.0

>  <APR_HepG2_OxidativeStress_24h_up>  (19) 
0.0

>  <APR_HepG2_OxidativeStress_72h_dn>  (19) 
0.0

>  <APR_HepG2_OxidativeStress_72h_up>  (19) 
1.0

>  <APR_HepG2_StressKinase_24h_dn>  (19) 
0.0

>  <APR_HepG2_StressKinase_24h_up>  (19) 
0.0

>  <APR_HepG2_StressKinase_72h_dn>  (19) 
0.0

>  <APR_HepG2_StressKinase_72h_up>  (19) 
0.0

>  <APR_HepG2_p53Act_24h_dn>  (19) 
0.0

>  <APR_HepG2_p53Act_24h_up>  (19) 
0.0

>  <APR_HepG2_p53Act_72h_dn>  (19) 
0.0

>  <APR_HepG2_p53Act_72h_up>  (19) 
0.0

>  <ATG_AP_1_CIS_dn>  (19) 
0.0

>  <ATG_AP_1_CIS_up>  (19) 
1.0

>  <ATG_AP_2_CIS_dn>  (19) 
1.0

>  <ATG_AP_2_CIS_up>  (19) 
0.0

>  <ATG_AR_TRANS_dn>  (19) 
0.0

>  <ATG_AR_TRANS_up>  (19) 
0.0

>  <ATG_Ahr_CIS_dn>  (19) 
0.0

>  <ATG_Ahr_CIS_up>  (19) 
0.0

>  <ATG_BRE_CIS_up>  (19) 
0.0

>  <ATG_CMV_CIS_dn>  (19) 
0.0

>  <ATG_CMV_CIS_up>  (19) 
1.0

>  <ATG_CRE_CIS_dn>  (19) 
0.0

>  <ATG_CRE_CIS_up>  (19) 
1.0

>  <ATG_C_EBP_CIS_dn>  (19) 
0.0

>  <ATG_C_EBP_CIS_up>  (19) 
0.0

>  <ATG_DR4_LXR_CIS_dn>  (19) 
1.0

>  <ATG_DR4_LXR_CIS_up>  (19) 
0.0

>  <ATG_DR5_CIS_dn>  (19) 
0.0

>  <ATG_DR5_CIS_up>  (19) 
1.0

>  <ATG_EGR_CIS_dn>  (19) 
0.0

>  <ATG_ERE_CIS_dn>  (19) 
0.0

>  <ATG_ERE_CIS_up>  (19) 
1.0

>  <ATG_ERRa_TRANS_dn>  (19) 
0.0

>  <ATG_ERRa_TRANS_up>  (19) 
0.0

>  <ATG_ERRg_TRANS_dn>  (19) 
0.0

>  <ATG_ERRg_TRANS_up>  (19) 
0.0

>  <ATG_E_Box_CIS_dn>  (19) 
0.0

>  <ATG_E_Box_CIS_up>  (19) 
0.0

>  <ATG_Ets_CIS_dn>  (19) 
0.0

>  <ATG_Ets_CIS_up>  (19) 
0.0

>  <ATG_FXR_TRANS_up>  (19) 
0.0

>  <ATG_FoxA2_CIS_dn>  (19) 
0.0

>  <ATG_FoxA2_CIS_up>  (19) 
0.0

>  <ATG_FoxO_CIS_dn>  (19) 
0.0

>  <ATG_FoxO_CIS_up>  (19) 
0.0

>  <ATG_GAL4_TRANS_dn>  (19) 
0.0

>  <ATG_GAL4_TRANS_up>  (19) 
0.0

>  <ATG_GATA_CIS_dn>  (19) 
1.0

>  <ATG_GATA_CIS_up>  (19) 
0.0

>  <ATG_GLI_CIS_up>  (19) 
0.0

>  <ATG_GRE_CIS_dn>  (19) 
0.0

>  <ATG_GR_TRANS_dn>  (19) 
0.0

>  <ATG_GR_TRANS_up>  (19) 
0.0

>  <ATG_HIF1a_CIS_dn>  (19) 
0.0

>  <ATG_HIF1a_CIS_up>  (19) 
0.0

>  <ATG_HNF4a_TRANS_dn>  (19) 
0.0

>  <ATG_HNF4a_TRANS_up>  (19) 
0.0

>  <ATG_HNF6_CIS_dn>  (19) 
0.0

>  <ATG_HNF6_CIS_up>  (19) 
0.0

>  <ATG_HSE_CIS_dn>  (19) 
0.0

>  <ATG_HSE_CIS_up>  (19) 
1.0

>  <ATG_IR1_CIS_dn>  (19) 
0.0

>  <ATG_IR1_CIS_up>  (19) 
0.0

>  <ATG_ISRE_CIS_dn>  (19) 
0.0

>  <ATG_ISRE_CIS_up>  (19) 
0.0

>  <ATG_LXRb_TRANS_up>  (19) 
0.0

>  <ATG_MRE_CIS_dn>  (19) 
0.0

>  <ATG_MRE_CIS_up>  (19) 
1.0

>  <ATG_M_06_CIS_dn>  (19) 
0.0

>  <ATG_M_06_CIS_up>  (19) 
0.0

>  <ATG_M_06_TRANS_dn>  (19) 
0.0

>  <ATG_M_06_TRANS_up>  (19) 
0.0

>  <ATG_M_19_CIS_dn>  (19) 
0.0

>  <ATG_M_19_CIS_up>  (19) 
0.0

>  <ATG_M_19_TRANS_dn>  (19) 
0.0

>  <ATG_M_19_TRANS_up>  (19) 
0.0

>  <ATG_M_32_CIS_dn>  (19) 
0.0

>  <ATG_M_32_CIS_up>  (19) 
0.0

>  <ATG_M_32_TRANS_dn>  (19) 
0.0

>  <ATG_M_32_TRANS_up>  (19) 
0.0

>  <ATG_M_61_CIS_dn>  (19) 
0.0

>  <ATG_M_61_CIS_up>  (19) 
0.0

>  <ATG_M_61_TRANS_dn>  (19) 
0.0

>  <ATG_M_61_TRANS_up>  (19) 
0.0

>  <ATG_Myb_CIS_dn>  (19) 
0.0

>  <ATG_Myb_CIS_up>  (19) 
0.0

>  <ATG_Myc_CIS_dn>  (19) 
0.0

>  <ATG_Myc_CIS_up>  (19) 
0.0

>  <ATG_NFI_CIS_dn>  (19) 
0.0

>  <ATG_NFI_CIS_up>  (19) 
1.0

>  <ATG_NF_kB_CIS_dn>  (19) 
0.0

>  <ATG_NF_kB_CIS_up>  (19) 
1.0

>  <ATG_NRF1_CIS_dn>  (19) 
0.0

>  <ATG_NRF2_ARE_CIS_dn>  (19) 
0.0

>  <ATG_NRF2_ARE_CIS_up>  (19) 
1.0

>  <ATG_NURR1_TRANS_dn>  (19) 
0.0

>  <ATG_Oct_MLP_CIS_dn>  (19) 
0.0

>  <ATG_Oct_MLP_CIS_up>  (19) 
1.0

>  <ATG_PBREM_CIS_dn>  (19) 
0.0

>  <ATG_PBREM_CIS_up>  (19) 
0.0

>  <ATG_PPARa_TRANS_dn>  (19) 
0.0

>  <ATG_PPARa_TRANS_up>  (19) 
0.0

>  <ATG_PPARd_TRANS_dn>  (19) 
0.0

>  <ATG_PPARd_TRANS_up>  (19) 
0.0

>  <ATG_PPARg_TRANS_dn>  (19) 
0.0

>  <ATG_PPARg_TRANS_up>  (19) 
0.0

>  <ATG_PPRE_CIS_dn>  (19) 
0.0

>  <ATG_PPRE_CIS_up>  (19) 
1.0

>  <ATG_PXRE_CIS_dn>  (19) 
0.0

>  <ATG_PXRE_CIS_up>  (19) 
1.0

>  <ATG_PXR_TRANS_dn>  (19) 
0.0

>  <ATG_PXR_TRANS_up>  (19) 
1.0

>  <ATG_Pax6_CIS_dn>  (19) 
0.0

>  <ATG_Pax6_CIS_up>  (19) 
1.0

>  <ATG_RARa_TRANS_dn>  (19) 
0.0

>  <ATG_RARa_TRANS_up>  (19) 
0.0

>  <ATG_RARb_TRANS_dn>  (19) 
0.0

>  <ATG_RARb_TRANS_up>  (19) 
0.0

>  <ATG_RARg_TRANS_dn>  (19) 
0.0

>  <ATG_RARg_TRANS_up>  (19) 
0.0

>  <ATG_RORE_CIS_dn>  (19) 
0.0

>  <ATG_RORE_CIS_up>  (19) 
0.0

>  <ATG_RORb_TRANS_dn>  (19) 
0.0

>  <ATG_RORb_TRANS_up>  (19) 
0.0

>  <ATG_RORg_TRANS_dn>  (19) 
0.0

>  <ATG_RORg_TRANS_up>  (19) 
0.0

>  <ATG_RXRa_TRANS_dn>  (19) 
0.0

>  <ATG_RXRa_TRANS_up>  (19) 
0.0

>  <ATG_RXRb_TRANS_dn>  (19) 
0.0

>  <ATG_RXRb_TRANS_up>  (19) 
1.0

>  <ATG_SREBP_CIS_dn>  (19) 
0.0

>  <ATG_SREBP_CIS_up>  (19) 
0.0

>  <ATG_STAT3_CIS_dn>  (19) 
0.0

>  <ATG_STAT3_CIS_up>  (19) 
0.0

>  <ATG_Sp1_CIS_dn>  (19) 
0.0

>  <ATG_TAL_CIS_dn>  (19) 
0.0

>  <ATG_TAL_CIS_up>  (19) 
0.0

>  <ATG_TA_CIS_dn>  (19) 
0.0

>  <ATG_TA_CIS_up>  (19) 
1.0

>  <ATG_TCF_b_cat_CIS_dn>  (19) 
1.0

>  <ATG_TCF_b_cat_CIS_up>  (19) 
0.0

>  <ATG_TGFb_CIS_dn>  (19) 
0.0

>  <ATG_THRa1_TRANS_dn>  (19) 
0.0

>  <ATG_THRa1_TRANS_up>  (19) 
0.0

>  <ATG_VDRE_CIS_dn>  (19) 
0.0

>  <ATG_VDRE_CIS_up>  (19) 
1.0

>  <ATG_VDR_TRANS_dn>  (19) 
0.0

>  <ATG_VDR_TRANS_up>  (19) 
0.0

>  <ATG_XTT_Cytotoxicity_up>  (19) 
1.0

>  <ATG_Xbp1_CIS_dn>  (19) 
0.0

>  <ATG_Xbp1_CIS_up>  (19) 
1.0

>  <ATG_p53_CIS_dn>  (19) 
0.0

>  <ATG_p53_CIS_up>  (19) 
0.0

>  <BSK_3C_Eselectin_down>  (19) 
1.0

>  <BSK_3C_Eselectin_up>  (19) 
0.0

>  <BSK_3C_HLADR_up>  (19) 
0.0

>  <BSK_3C_ICAM1_down>  (19) 
1.0

>  <BSK_3C_ICAM1_up>  (19) 
0.0

>  <BSK_3C_IL8_down>  (19) 
1.0

>  <BSK_3C_IL8_up>  (19) 
0.0

>  <BSK_3C_MCP1_down>  (19) 
1.0

>  <BSK_3C_MCP1_up>  (19) 
0.0

>  <BSK_3C_MIG_down>  (19) 
1.0

>  <BSK_3C_MIG_up>  (19) 
0.0

>  <BSK_3C_Proliferation_down>  (19) 
1.0

>  <BSK_3C_Proliferation_up>  (19) 
0.0

>  <BSK_3C_SRB_down>  (19) 
1.0

>  <BSK_3C_SRB_up>  (19) 
0.0

>  <BSK_3C_Thrombomodulin_down>  (19) 
0.0

>  <BSK_3C_Thrombomodulin_up>  (19) 
0.0

>  <BSK_3C_TissueFactor_down>  (19) 
1.0

>  <BSK_3C_TissueFactor_up>  (19) 
0.0

>  <BSK_3C_VCAM1_down>  (19) 
1.0

>  <BSK_3C_VCAM1_up>  (19) 
0.0

>  <BSK_3C_Vis_up>  (19) 
0.0

>  <BSK_3C_uPAR_up>  (19) 
0.0

>  <BSK_4H_Eotaxin3_down>  (19) 
1.0

>  <BSK_4H_Eotaxin3_up>  (19) 
0.0

>  <BSK_4H_MCP1_down>  (19) 
1.0

>  <BSK_4H_MCP1_up>  (19) 
0.0

>  <BSK_4H_Pselectin_down>  (19) 
1.0

>  <BSK_4H_Pselectin_up>  (19) 
0.0

>  <BSK_4H_SRB_down>  (19) 
1.0

>  <BSK_4H_SRB_up>  (19) 
0.0

>  <BSK_4H_VCAM1_down>  (19) 
1.0

>  <BSK_4H_VCAM1_up>  (19) 
0.0

>  <BSK_4H_VEGFRII_down>  (19) 
1.0

>  <BSK_4H_VEGFRII_up>  (19) 
0.0

>  <BSK_4H_uPAR_down>  (19) 
1.0

>  <BSK_4H_uPAR_up>  (19) 
0.0

>  <BSK_BE3C_HLADR_down>  (19) 
1.0

>  <BSK_BE3C_HLADR_up>  (19) 
0.0

>  <BSK_BE3C_IL1a_down>  (19) 
1.0

>  <BSK_BE3C_IL1a_up>  (19) 
0.0

>  <BSK_BE3C_IP10_down>  (19) 
1.0

>  <BSK_BE3C_IP10_up>  (19) 
0.0

>  <BSK_BE3C_MIG_down>  (19) 
1.0

>  <BSK_BE3C_MIG_up>  (19) 
0.0

>  <BSK_BE3C_MMP1_down>  (19) 
0.0

>  <BSK_BE3C_MMP1_up>  (19) 
0.0

>  <BSK_BE3C_PAI1_down>  (19) 
1.0

>  <BSK_BE3C_PAI1_up>  (19) 
0.0

>  <BSK_BE3C_SRB_down>  (19) 
1.0

>  <BSK_BE3C_SRB_up>  (19) 
0.0

>  <BSK_BE3C_TGFb1_down>  (19) 
1.0

>  <BSK_BE3C_TGFb1_up>  (19) 
0.0

>  <BSK_BE3C_tPA_down>  (19) 
1.0

>  <BSK_BE3C_tPA_up>  (19) 
0.0

>  <BSK_BE3C_uPAR_down>  (19) 
0.0

>  <BSK_BE3C_uPAR_up>  (19) 
0.0

>  <BSK_BE3C_uPA_down>  (19) 
0.0

>  <BSK_BE3C_uPA_up>  (19) 
0.0

>  <BSK_CASM3C_HLADR_down>  (19) 
1.0

>  <BSK_CASM3C_HLADR_up>  (19) 
0.0

>  <BSK_CASM3C_IL6_down>  (19) 
0.0

>  <BSK_CASM3C_IL6_up>  (19) 
0.0

>  <BSK_CASM3C_IL8_down>  (19) 
0.0

>  <BSK_CASM3C_IL8_up>  (19) 
0.0

>  <BSK_CASM3C_LDLR_down>  (19) 
0.0

>  <BSK_CASM3C_LDLR_up>  (19) 
0.0

>  <BSK_CASM3C_MCP1_down>  (19) 
0.0

>  <BSK_CASM3C_MCP1_up>  (19) 
0.0

>  <BSK_CASM3C_MCSF_down>  (19) 
0.0

>  <BSK_CASM3C_MCSF_up>  (19) 
0.0

>  <BSK_CASM3C_MIG_down>  (19) 
0.0

>  <BSK_CASM3C_MIG_up>  (19) 
0.0

>  <BSK_CASM3C_Proliferation_down>  (19) 
1.0

>  <BSK_CASM3C_Proliferation_up>  (19) 
0.0

>  <BSK_CASM3C_SAA_down>  (19) 
0.0

>  <BSK_CASM3C_SAA_up>  (19) 
0.0

>  <BSK_CASM3C_SRB_down>  (19) 
1.0

>  <BSK_CASM3C_SRB_up>  (19) 
0.0

>  <BSK_CASM3C_Thrombomodulin_down>  (19) 
0.0

>  <BSK_CASM3C_Thrombomodulin_up>  (19) 
1.0

>  <BSK_CASM3C_TissueFactor_down>  (19) 
0.0

>  <BSK_CASM3C_TissueFactor_up>  (19) 
0.0

>  <BSK_CASM3C_VCAM1_down>  (19) 
1.0

>  <BSK_CASM3C_VCAM1_up>  (19) 
0.0

>  <BSK_CASM3C_uPAR_down>  (19) 
0.0

>  <BSK_CASM3C_uPAR_up>  (19) 
0.0

>  <BSK_KF3CT_ICAM1_down>  (19) 
1.0

>  <BSK_KF3CT_ICAM1_up>  (19) 
0.0

>  <BSK_KF3CT_IL1a_down>  (19) 
1.0

>  <BSK_KF3CT_IL1a_up>  (19) 
0.0

>  <BSK_KF3CT_IP10_down>  (19) 
1.0

>  <BSK_KF3CT_IP10_up>  (19) 
0.0

>  <BSK_KF3CT_MCP1_down>  (19) 
1.0

>  <BSK_KF3CT_MCP1_up>  (19) 
0.0

>  <BSK_KF3CT_MMP9_down>  (19) 
1.0

>  <BSK_KF3CT_MMP9_up>  (19) 
0.0

>  <BSK_KF3CT_SRB_down>  (19) 
1.0

>  <BSK_KF3CT_SRB_up>  (19) 
0.0

>  <BSK_KF3CT_TGFb1_down>  (19) 
1.0

>  <BSK_KF3CT_TGFb1_up>  (19) 
0.0

>  <BSK_KF3CT_TIMP2_down>  (19) 
1.0

>  <BSK_KF3CT_TIMP2_up>  (19) 
0.0

>  <BSK_KF3CT_uPA_down>  (19) 
1.0

>  <BSK_KF3CT_uPA_up>  (19) 
0.0

>  <BSK_LPS_CD40_down>  (19) 
1.0

>  <BSK_LPS_CD40_up>  (19) 
0.0

>  <BSK_LPS_Eselectin_down>  (19) 
1.0

>  <BSK_LPS_Eselectin_up>  (19) 
0.0

>  <BSK_LPS_IL1a_down>  (19) 
1.0

>  <BSK_LPS_IL1a_up>  (19) 
0.0

>  <BSK_LPS_IL8_down>  (19) 
1.0

>  <BSK_LPS_IL8_up>  (19) 
0.0

>  <BSK_LPS_MCP1_down>  (19) 
1.0

>  <BSK_LPS_MCP1_up>  (19) 
0.0

>  <BSK_LPS_MCSF_down>  (19) 
1.0

>  <BSK_LPS_MCSF_up>  (19) 
0.0

>  <BSK_LPS_PGE2_down>  (19) 
1.0

>  <BSK_LPS_PGE2_up>  (19) 
0.0

>  <BSK_LPS_SRB_down>  (19) 
1.0

>  <BSK_LPS_SRB_up>  (19) 
0.0

>  <BSK_LPS_TNFa_down>  (19) 
1.0

>  <BSK_LPS_TNFa_up>  (19) 
0.0

>  <BSK_LPS_TissueFactor_down>  (19) 
1.0

>  <BSK_LPS_TissueFactor_up>  (19) 
0.0

>  <BSK_LPS_VCAM1_down>  (19) 
1.0

>  <BSK_LPS_VCAM1_up>  (19) 
0.0

>  <BSK_SAg_CD38_down>  (19) 
1.0

>  <BSK_SAg_CD38_up>  (19) 
0.0

>  <BSK_SAg_CD40_down>  (19) 
1.0

>  <BSK_SAg_CD40_up>  (19) 
0.0

>  <BSK_SAg_CD69_down>  (19) 
1.0

>  <BSK_SAg_CD69_up>  (19) 
0.0

>  <BSK_SAg_Eselectin_down>  (19) 
1.0

>  <BSK_SAg_Eselectin_up>  (19) 
0.0

>  <BSK_SAg_IL8_down>  (19) 
1.0

>  <BSK_SAg_IL8_up>  (19) 
0.0

>  <BSK_SAg_MCP1_down>  (19) 
1.0

>  <BSK_SAg_MCP1_up>  (19) 
0.0

>  <BSK_SAg_MIG_down>  (19) 
1.0

>  <BSK_SAg_MIG_up>  (19) 
0.0

>  <BSK_SAg_PBMCCytotoxicity_down>  (19) 
1.0

>  <BSK_SAg_PBMCCytotoxicity_up>  (19) 
0.0

>  <BSK_SAg_Proliferation_down>  (19) 
1.0

>  <BSK_SAg_Proliferation_up>  (19) 
0.0

>  <BSK_SAg_SRB_down>  (19) 
1.0

>  <BSK_SAg_SRB_up>  (19) 
0.0

>  <BSK_hDFCGF_CollagenIII_down>  (19) 
1.0

>  <BSK_hDFCGF_CollagenIII_up>  (19) 
0.0

>  <BSK_hDFCGF_EGFR_down>  (19) 
0.0

>  <BSK_hDFCGF_EGFR_up>  (19) 
0.0

>  <BSK_hDFCGF_IL8_down>  (19) 
1.0

>  <BSK_hDFCGF_IL8_up>  (19) 
0.0

>  <BSK_hDFCGF_IP10_down>  (19) 
1.0

>  <BSK_hDFCGF_IP10_up>  (19) 
0.0

>  <BSK_hDFCGF_MCSF_down>  (19) 
1.0

>  <BSK_hDFCGF_MCSF_up>  (19) 
0.0

>  <BSK_hDFCGF_MIG_down>  (19) 
1.0

>  <BSK_hDFCGF_MIG_up>  (19) 
0.0

>  <BSK_hDFCGF_MMP1_down>  (19) 
1.0

>  <BSK_hDFCGF_MMP1_up>  (19) 
0.0

>  <BSK_hDFCGF_PAI1_down>  (19) 
1.0

>  <BSK_hDFCGF_PAI1_up>  (19) 
0.0

>  <BSK_hDFCGF_Proliferation_down>  (19) 
1.0

>  <BSK_hDFCGF_Proliferation_up>  (19) 
0.0

>  <BSK_hDFCGF_SRB_down>  (19) 
1.0

>  <BSK_hDFCGF_SRB_up>  (19) 
0.0

>  <BSK_hDFCGF_TIMP1_down>  (19) 
1.0

>  <BSK_hDFCGF_TIMP1_up>  (19) 
0.0

>  <BSK_hDFCGF_VCAM1_down>  (19) 
1.0

>  <BSK_hDFCGF_VCAM1_up>  (19) 
0.0

>  <NCCT_HEK293T_CellTiterGLO>  (19) 
1.0

>  <NCCT_QuantiLum_inhib_2_dn>  (19) 
0.0

>  <NCCT_QuantiLum_inhib_dn>  (19) 
1.0

>  <NCCT_TPO_AUR_dn>  (19) 
1.0

>  <NHEERL_ZF_144hpf_TERATOSCORE_up>  (19) 
1.0

>  <NIS_HEK293T_CTG_Cytotoxicity>  (19) 
1.0

>  <NIS_RAIU_inhibition>  (19) 
1.0

>  <NVS_ADME_hCYP1A1>  (19) 
0.0

>  <NVS_ADME_hCYP1A1_Activator>  (19) 
0.0

>  <NVS_ADME_hCYP2B6>  (19) 
1.0

>  <NVS_ADME_hCYP2B6_Activator>  (19) 
0.0

>  <NVS_ADME_hCYP2C9>  (19) 
1.0

>  <NVS_ADME_hCYP2C9_Activator>  (19) 
0.0

>  <NVS_ADME_hCYP2D6>  (19) 
0.0

>  <NVS_ADME_hCYP2D6_Activator>  (19) 
0.0

>  <NVS_ADME_hCYP3A4>  (19) 
0.0

>  <NVS_ADME_hCYP3A4_Activator>  (19) 
0.0

>  <NVS_ENZ_hBACE>  (19) 
1.0

>  <NVS_ENZ_hBACE_Activator>  (19) 
0.0

>  <NVS_ENZ_hCASP3>  (19) 
0.0

>  <NVS_ENZ_hCASP3_Activator>  (19) 
0.0

>  <NVS_ENZ_hGSK3b>  (19) 
0.0

>  <NVS_ENZ_hGSK3b_Activator>  (19) 
0.0

>  <NVS_ENZ_hMMP1>  (19) 
1.0

>  <NVS_ENZ_hMMP1_Activator>  (19) 
0.0

>  <NVS_ENZ_hVEGFR2>  (19) 
0.0

>  <NVS_ENZ_hVEGFR2_Activator>  (19) 
0.0

>  <NVS_ENZ_rACFSKBinding>  (19) 
0.0

>  <NVS_ENZ_rACFSKBinding_Activator>  (19) 
0.0

>  <NVS_ENZ_rMAOBC>  (19) 
0.0

>  <NVS_ENZ_rMAOBC_Activator>  (19) 
0.0

>  <NVS_ENZ_rMAOBP>  (19) 
0.0

>  <NVS_ENZ_rMAOBP_Activator>  (19) 
0.0

>  <NVS_GPCR_g5HT4>  (19) 
1.0

>  <NVS_GPCR_gLTB4>  (19) 
1.0

>  <NVS_GPCR_h5HT5A>  (19) 
1.0

>  <NVS_GPCR_h5HT6>  (19) 
1.0

>  <NVS_GPCR_hAdoRA1>  (19) 
1.0

>  <NVS_GPCR_hAdra2C>  (19) 
1.0

>  <NVS_GPCR_hDRD1>  (19) 
1.0

>  <NVS_GPCR_hDRD2s>  (19) 
0.0

>  <NVS_GPCR_hLTB4_BLT1>  (19) 
0.0

>  <NVS_GPCR_hM5>  (19) 
0.0

>  <NVS_GPCR_hNK2>  (19) 
1.0

>  <NVS_GPCR_hOpiate_mu>  (19) 
1.0

>  <NVS_GPCR_mCCKAPeripheral>  (19) 
1.0

>  <NVS_GPCR_mCKKBCentral>  (19) 
1.0

>  <NVS_GPCR_p5HT2C>  (19) 
1.0

>  <NVS_GPCR_rOpiate_NonSelectiveNa>  (19) 
1.0

>  <NVS_IC_rCaDHPRCh_L>  (19) 
1.0

>  <NVS_IC_rKCaCh>  (19) 
0.0

>  <NVS_IC_rNaCh_site2>  (19) 
1.0

>  <NVS_MP_hPBR>  (19) 
0.0

>  <NVS_MP_rPBR>  (19) 
0.0

>  <NVS_NR_bPR>  (19) 
1.0

>  <NVS_NR_hPPARa>  (19) 
0.0

>  <NVS_NR_hPPARg>  (19) 
0.0

>  <NVS_NR_hPXR>  (19) 
1.0

>  <NVS_NR_hRAR_Antagonist>  (19) 
0.0

>  <NVS_TR_gDAT>  (19) 
1.0

>  <NVS_TR_hDAT>  (19) 
1.0

>  <NVS_TR_hNET>  (19) 
1.0

>  <OT_AR_ARSRC1_0480>  (19) 
1.0

>  <OT_AR_ARSRC1_0960>  (19) 
1.0

>  <OT_ER_ERaERa_0480>  (19) 
1.0

>  <OT_ER_ERaERa_1440>  (19) 
1.0

>  <OT_ER_ERaERb_0480>  (19) 
1.0

>  <OT_ER_ERbERb_0480>  (19) 
1.0

>  <OT_ER_ERbERb_1440>  (19) 
1.0

>  <OT_ERa_EREGFP_0480>  (19) 
1.0

>  <TOX21_AP1_BLA_Agonist_ch1>  (19) 
1.0

>  <TOX21_AP1_BLA_Agonist_ch2>  (19) 
0.0

>  <TOX21_AP1_BLA_Agonist_ratio>  (19) 
1.0

>  <TOX21_AP1_BLA_Agonist_viability>  (19) 
1.0

>  <TOX21_ARE_BLA_Agonist_ch1>  (19) 
1.0

>  <TOX21_ARE_BLA_Agonist_ch2>  (19) 
1.0

>  <TOX21_ARE_BLA_agonist_viability>  (19) 
1.0

>  <TOX21_AR_BLA_Agonist_ch1>  (19) 
0.0

>  <TOX21_AR_BLA_Agonist_ch2>  (19) 
0.0

>  <TOX21_AR_BLA_Agonist_ratio>  (19) 
0.0

>  <TOX21_AR_BLA_Antagonist_ch1>  (19) 
0.0

>  <TOX21_AR_BLA_Antagonist_ch2>  (19) 
1.0

>  <TOX21_AR_BLA_Antagonist_ratio>  (19) 
1.0

>  <TOX21_AR_BLA_Antagonist_viability>  (19) 
1.0

>  <TOX21_AR_LUC_MDAKB2_Agonist>  (19) 
0.0

>  <TOX21_AR_LUC_MDAKB2_Agonist_3uM_Nilutamide>  (19) 
0.0

>  <TOX21_AR_LUC_MDAKB2_Agonist_3uM_Nilutamide_viability>  (19) 
0.0

>  <TOX21_AR_LUC_MDAKB2_Antagonist_0.5nM_R1881>  (19) 
1.0

>  <TOX21_AR_LUC_MDAKB2_Antagonist_0.5nM_R1881_viability>  (19) 
0.0

>  <TOX21_AR_LUC_MDAKB2_Antagonist_10nM_R1881>  (19) 
1.0

>  <TOX21_AR_LUC_MDAKB2_Antagonist_10nM_R1881_viability>  (19) 
1.0

>  <TOX21_AhR_LUC_Agonist>  (19) 
0.0

>  <TOX21_Aromatase_Inhibition>  (19) 
1.0

>  <TOX21_Aromatase_Inhibition_viability>  (19) 
1.0

>  <TOX21_AutoFluor_HEK293_Cell_blue>  (19) 
0.0

>  <TOX21_AutoFluor_HEK293_Cell_green>  (19) 
0.0

>  <TOX21_AutoFluor_HEK293_Cell_red>  (19) 
0.0

>  <TOX21_AutoFluor_HEK293_Media_blue>  (19) 
0.0

>  <TOX21_AutoFluor_HEK293_Media_green>  (19) 
0.0

>  <TOX21_AutoFluor_HEK293_Media_red>  (19) 
0.0

>  <TOX21_AutoFluor_HEPG2_Cell_blue>  (19) 
0.0

>  <TOX21_AutoFluor_HEPG2_Cell_green>  (19) 
0.0

>  <TOX21_AutoFluor_HEPG2_Cell_red>  (19) 
0.0

>  <TOX21_AutoFluor_HEPG2_Media_blue>  (19) 
0.0

>  <TOX21_AutoFluor_HEPG2_Media_green>  (19) 
0.0

>  <TOX21_AutoFluor_HEPG2_Media_red>  (19) 
0.0

>  <TOX21_CAR_Agonist>  (19) 
1.0

>  <TOX21_CAR_Antagonist>  (19) 
0.0

>  <TOX21_CAR_Antagonist_viability>  (19) 
1.0

>  <TOX21_CASP3_CHO>  (19) 
0.0

>  <TOX21_CASP3_CHO_viability>  (19) 
1.0

>  <TOX21_CASP3_HEPG2>  (19) 
0.0

>  <TOX21_CASP3_HEPG2_viability>  (19) 
0.0

>  <TOX21_DT40>  (19) 
1.0

>  <TOX21_DT40_100>  (19) 
1.0

>  <TOX21_DT40_657>  (19) 
1.0

>  <TOX21_ELG1_LUC_Agonist>  (19) 
0.0

>  <TOX21_ELG1_LUC_Agonist_viability>  (19) 
0.0

>  <TOX21_ERR_Agonist>  (19) 
0.0

>  <TOX21_ERR_Antagonist>  (19) 
1.0

>  <TOX21_ERa_BLA_Agonist_ch1>  (19) 
1.0

>  <TOX21_ERa_BLA_Agonist_ch2>  (19) 
1.0

>  <TOX21_ERa_BLA_Agonist_ratio>  (19) 
1.0

>  <TOX21_ERa_BLA_Antagonist_ch1>  (19) 
0.0

>  <TOX21_ERa_BLA_Antagonist_ch2>  (19) 
1.0

>  <TOX21_ERa_BLA_Antagonist_ratio>  (19) 
1.0

>  <TOX21_ERa_BLA_Antagonist_viability>  (19) 
0.0

>  <TOX21_ERa_LUC_VM7_Agonist>  (19) 
1.0

>  <TOX21_ERa_LUC_VM7_Agonist_10nM_ICI182780>  (19) 
1.0

>  <TOX21_ERa_LUC_VM7_Agonist_10nM_ICI182780_viability>  (19) 
0.0

>  <TOX21_ERa_LUC_VM7_Antagonist_0.1nM_E2>  (19) 
1.0

>  <TOX21_ERa_LUC_VM7_Antagonist_0.1nM_E2_viability>  (19) 
0.0

>  <TOX21_ERa_LUC_VM7_Antagonist_0.5nM_E2>  (19) 
1.0

>  <TOX21_ERa_LUC_VM7_Antagonist_0.5nM_E2_viability>  (19) 
0.0

>  <TOX21_ERb_BLA_Agonist_ch1>  (19) 
0.0

>  <TOX21_ERb_BLA_Agonist_ch2>  (19) 
1.0

>  <TOX21_ERb_BLA_Agonist_ratio>  (19) 
0.0

>  <TOX21_ERb_BLA_Agonist_viability>  (19) 
1.0

>  <TOX21_ERb_BLA_Antagonist_ch1>  (19) 
0.0

>  <TOX21_ERb_BLA_Antagonist_ch2>  (19) 
1.0

>  <TOX21_ERb_BLA_Antagonist_ratio>  (19) 
1.0

>  <TOX21_ERb_BLA_Antagonist_viability>  (19) 
1.0

>  <TOX21_ESRE_BLA_ch1>  (19) 
0.0

>  <TOX21_ESRE_BLA_ch2>  (19) 
0.0

>  <TOX21_ESRE_BLA_ratio>  (19) 
0.0

>  <TOX21_ESRE_BLA_viability>  (19) 
1.0

>  <TOX21_FXR_BLA_Antagonist_ch1>  (19) 
0.0

>  <TOX21_FXR_BLA_Antagonist_ch2>  (19) 
0.0

>  <TOX21_FXR_BLA_agonist_ch1>  (19) 
0.0

>  <TOX21_FXR_BLA_agonist_ch2>  (19) 
0.0

>  <TOX21_FXR_BLA_agonist_ratio>  (19) 
0.0

>  <TOX21_FXR_BLA_agonist_viability>  (19) 
0.0

>  <TOX21_FXR_BLA_antagonist_ratio>  (19) 
1.0

>  <TOX21_FXR_BLA_antagonist_viability>  (19) 
0.0

>  <TOX21_GR_BLA_Agonist_ch1>  (19) 
1.0

>  <TOX21_GR_BLA_Agonist_ch2>  (19) 
0.0

>  <TOX21_GR_BLA_Agonist_ratio>  (19) 
1.0

>  <TOX21_GR_BLA_Antagonist_ch1>  (19) 
0.0

>  <TOX21_GR_BLA_Antagonist_ch2>  (19) 
1.0

>  <TOX21_GR_BLA_Antagonist_ratio>  (19) 
1.0

>  <TOX21_GR_BLA_Antagonist_viability>  (19) 
1.0

>  <TOX21_H2AX_HTRF_CHO_Agonist_ch1>  (19) 
0.0

>  <TOX21_H2AX_HTRF_CHO_Agonist_ch2>  (19) 
0.0

>  <TOX21_H2AX_HTRF_CHO_Agonist_ratio>  (19) 
1.0

>  <TOX21_H2AX_HTRF_CHO_viability>  (19) 
1.0

>  <TOX21_HDAC_Inhibition>  (19) 
0.0

>  <TOX21_HDAC_Inhibition_viability>  (19) 
0.0

>  <TOX21_HRE_BLA_Agonist_ch1>  (19) 
1.0

>  <TOX21_HRE_BLA_Agonist_ch2>  (19) 
0.0

>  <TOX21_HRE_BLA_Agonist_ratio>  (19) 
1.0

>  <TOX21_HRE_BLA_Agonist_viability>  (19) 
1.0

>  <TOX21_HSE_BLA_agonist_ch1>  (19) 
0.0

>  <TOX21_HSE_BLA_agonist_ch2>  (19) 
0.0

>  <TOX21_HSE_BLA_agonist_ratio>  (19) 
0.0

>  <TOX21_HSE_BLA_agonist_viability>  (19) 
0.0

>  <TOX21_LUC_Biochem>  (19) 
0.0

>  <TOX21_MMP_fitc>  (19) 
1.0

>  <TOX21_MMP_ratio_down>  (19) 
1.0

>  <TOX21_MMP_ratio_up>  (19) 
0.0

>  <TOX21_MMP_rhodamine>  (19) 
1.0

>  <TOX21_MMP_viability>  (19) 
1.0

>  <TOX21_NFkB_BLA_agonist_ch1>  (19) 
1.0

>  <TOX21_NFkB_BLA_agonist_ch2>  (19) 
0.0

>  <TOX21_NFkB_BLA_agonist_ratio>  (19) 
1.0

>  <TOX21_NFkB_BLA_agonist_viability>  (19) 
1.0

>  <TOX21_PGC_ERR_Agonist>  (19) 
0.0

>  <TOX21_PGC_ERR_Antagonist>  (19) 
0.0

>  <TOX21_PGC_ERR_viability>  (19) 
1.0

>  <TOX21_PPARd_BLA_Agonist_viability>  (19) 
1.0

>  <TOX21_PPARd_BLA_Antagonist_ch1>  (19) 
0.0

>  <TOX21_PPARd_BLA_Antagonist_ch2>  (19) 
0.0

>  <TOX21_PPARd_BLA_agonist_ch1>  (19) 
0.0

>  <TOX21_PPARd_BLA_agonist_ch2>  (19) 
0.0

>  <TOX21_PPARd_BLA_agonist_ratio>  (19) 
0.0

>  <TOX21_PPARd_BLA_antagonist_ratio>  (19) 
0.0

>  <TOX21_PPARd_BLA_antagonist_viability>  (19) 
0.0

>  <TOX21_PPARg_BLA_Agonist_ch1>  (19) 
0.0

>  <TOX21_PPARg_BLA_Agonist_ch2>  (19) 
0.0

>  <TOX21_PPARg_BLA_Agonist_ratio>  (19) 
0.0

>  <TOX21_PPARg_BLA_Antagonist_ch1>  (19) 
0.0

>  <TOX21_PPARg_BLA_Antagonist_ch2>  (19) 
0.0

>  <TOX21_PPARg_BLA_antagonist_ratio>  (19) 
1.0

>  <TOX21_PPARg_BLA_antagonist_viability>  (19) 
1.0

>  <TOX21_PR_BLA_Agonist_ch1>  (19) 
1.0

>  <TOX21_PR_BLA_Agonist_ch2>  (19) 
0.0

>  <TOX21_PR_BLA_Agonist_ratio>  (19) 
0.0

>  <TOX21_PR_BLA_Antagonist_ch1>  (19) 
0.0

>  <TOX21_PR_BLA_Antagonist_ch2>  (19) 
1.0

>  <TOX21_PR_BLA_Antagonist_ratio>  (19) 
1.0

>  <TOX21_PR_BLA_Antagonist_viability>  (19) 
1.0

>  <TOX21_PR_BLA_Followup_Agonist_ch1>  (19) 
0.0

>  <TOX21_PR_BLA_Followup_Agonist_ch2>  (19) 
0.0

>  <TOX21_PR_BLA_Followup_Agonist_ratio>  (19) 
0.0

>  <TOX21_PR_BLA_Followup_Agonist_viability>  (19) 
0.0

>  <TOX21_PR_BLA_Followup_Antagonist_ch1>  (19) 
1.0

>  <TOX21_PR_BLA_Followup_Antagonist_ch2>  (19) 
0.0

>  <TOX21_PR_BLA_Followup_Antagonist_ratio>  (19) 
1.0

>  <TOX21_PR_BLA_Followup_Antagonist_viability>  (19) 
0.0

>  <TOX21_PR_LUC_Followup_Agonist>  (19) 
0.0

>  <TOX21_PR_LUC_Followup_Agonist_viability>  (19) 
0.0

>  <TOX21_PR_LUC_Followup_Antagonist>  (19) 
1.0

>  <TOX21_PR_LUC_Followup_Antagonist_viability>  (19) 
0.0

>  <TOX21_PXR_Agonist>  (19) 
0.0

>  <TOX21_PXR_viability>  (19) 
1.0

>  <TOX21_RAR_LUC_Agonist>  (19) 
0.0

>  <TOX21_RAR_LUC_Agonist_viability>  (19) 
1.0

>  <TOX21_RAR_LUC_Antagonist_viability>  (19) 
0.0

>  <TOX21_RORg_LUC_CHO_Antagonist>  (19) 
1.0

>  <TOX21_RORg_LUC_CHO_Antagonist_viability>  (19) 
1.0

>  <TOX21_RT_HEK293_FLO_00hr_viability>  (19) 
0.0

>  <TOX21_RT_HEK293_FLO_08hr_viability>  (19) 
1.0

>  <TOX21_RT_HEK293_FLO_16hr_viability>  (19) 
1.0

>  <TOX21_RT_HEK293_FLO_24hr_viability>  (19) 
1.0

>  <TOX21_RT_HEK293_FLO_32hr_viability>  (19) 
1.0

>  <TOX21_RT_HEK293_FLO_40hr_viability>  (19) 
1.0

>  <TOX21_RT_HEK293_GLO_00hr_viability>  (19) 
0.0

>  <TOX21_RT_HEK293_GLO_08hr_viability>  (19) 
1.0

>  <TOX21_RT_HEK293_GLO_16hr_viability>  (19) 
1.0

>  <TOX21_RT_HEK293_GLO_24hr_viability>  (19) 
1.0

>  <TOX21_RT_HEK293_GLO_32hr_viability>  (19) 
1.0

>  <TOX21_RT_HEK293_GLO_40hr_viability>  (19) 
1.0

>  <TOX21_RT_HEPG2_FLO_00hr_ctrl_viability>  (19) 
0.0

>  <TOX21_RT_HEPG2_FLO_08hr_viability>  (19) 
1.0

>  <TOX21_RT_HEPG2_FLO_16hr_ctrl_viability>  (19) 
1.0

>  <TOX21_RT_HEPG2_FLO_24hr_viability>  (19) 
1.0

>  <TOX21_RT_HEPG2_FLO_32hr_ctrl_viability>  (19) 
1.0

>  <TOX21_RT_HEPG2_GLO_00hr_ctrl_viability>  (19) 
1.0

>  <TOX21_RT_HEPG2_GLO_08hr_ctrl_viability>  (19) 
1.0

>  <TOX21_RT_HEPG2_GLO_16hr_ctrl_viability>  (19) 
1.0

>  <TOX21_RT_HEPG2_GLO_24hr_ctrl_viability>  (19) 
1.0

>  <TOX21_RT_HEPG2_GLO_32hr_ctrl_viability>  (19) 
1.0

>  <TOX21_RT_HEPG2_GLO_40hr_viability>  (19) 
1.0

>  <TOX21_RXR_BLA_Agonist_ch1>  (19) 
0.0

>  <TOX21_RXR_BLA_Agonist_ch2>  (19) 
0.0

>  <TOX21_RXR_BLA_Agonist_ratio>  (19) 
0.0

>  <TOX21_RXR_BLA_Agonist_viability>  (19) 
1.0

>  <TOX21_SBE_BLA_Agonist_ch1>  (19) 
0.0

>  <TOX21_SBE_BLA_Agonist_ch2>  (19) 
0.0

>  <TOX21_SBE_BLA_Agonist_ratio>  (19) 
0.0

>  <TOX21_SBE_BLA_Agonist_viability>  (19) 
0.0

>  <TOX21_SBE_BLA_Antagonist_ch1>  (19) 
0.0

>  <TOX21_SBE_BLA_Antagonist_ch2>  (19) 
1.0

>  <TOX21_SBE_BLA_Antagonist_ratio>  (19) 
1.0

>  <TOX21_SBE_BLA_Antagonist_viability>  (19) 
0.0

>  <TOX21_SSH_3T3_GLI3_Agonist>  (19) 
0.0

>  <TOX21_SSH_3T3_GLI3_Agonist_viability>  (19) 
1.0

>  <TOX21_SSH_3T3_GLI3_Antagonist>  (19) 
1.0

>  <TOX21_SSH_3T3_GLI3_Antagonist_viability>  (19) 
1.0

>  <TOX21_TRHR_HEK293_Agonist>  (19) 
1.0

>  <TOX21_TRHR_HEK293_Antagonist>  (19) 
1.0

>  <TOX21_TR_LUC_GH3_Agonist>  (19) 
0.0

>  <TOX21_TR_LUC_GH3_Antagonist>  (19) 
1.0

>  <TOX21_TR_LUC_GH3_Antagonist_viability>  (19) 
1.0

>  <TOX21_TSHR_Agonist_ch2>  (19) 
0.0

>  <TOX21_TSHR_Antagonist_ch2>  (19) 
0.0

>  <TOX21_TSHR_Antagonist_ratio>  (19) 
0.0

>  <TOX21_TSHR_HTRF_Agonist_ch1>  (19) 
1.0

>  <TOX21_TSHR_HTRF_Antagonist_ch1>  (19) 
0.0

>  <TOX21_TSHR_wt_HTRF_ch1>  (19) 
0.0

>  <TOX21_TSHR_wt_ch2>  (19) 
0.0

>  <TOX21_TSHR_wt_ratio>  (19) 
0.0

>  <TOX21_VDR_BLA_Agonist_viability>  (19) 
1.0

>  <TOX21_VDR_BLA_Antagonist_ch1>  (19) 
0.0

>  <TOX21_VDR_BLA_Antagonist_ch2>  (19) 
0.0

>  <TOX21_VDR_BLA_agonist_ch1>  (19) 
0.0

>  <TOX21_VDR_BLA_agonist_ch2>  (19) 
0.0

>  <TOX21_VDR_BLA_agonist_ratio>  (19) 
0.0

>  <TOX21_VDR_BLA_antagonist_ratio>  (19) 
0.0

>  <TOX21_VDR_BLA_antagonist_viability>  (19) 
1.0

>  <TOX21_p53_BLA_p1_ch1>  (19) 
1.0

>  <TOX21_p53_BLA_p1_ch2>  (19) 
0.0

>  <TOX21_p53_BLA_p1_ratio>  (19) 
1.0

>  <TOX21_p53_BLA_p1_viability>  (19) 
0.0

>  <TOX21_p53_BLA_p2_ch1>  (19) 
1.0

>  <TOX21_p53_BLA_p2_ch2>  (19) 
0.0

>  <TOX21_p53_BLA_p2_ratio>  (19) 
1.0

>  <TOX21_p53_BLA_p2_viability>  (19) 
1.0

>  <TOX21_p53_BLA_p3_ch1>  (19) 
1.0

>  <TOX21_p53_BLA_p3_ch2>  (19) 
0.0

>  <TOX21_p53_BLA_p3_ratio>  (19) 
0.0

>  <TOX21_p53_BLA_p4_ch1>  (19) 
1.0

>  <TOX21_p53_BLA_p4_ch2>  (19) 
0.0

>  <TOX21_p53_BLA_p4_ratio>  (19) 
1.0

>  <TOX21_p53_BLA_p4_viability>  (19) 
1.0

>  <TOX21_p53_BLA_p5_ch1>  (19) 
1.0

>  <TOX21_p53_BLA_p5_ch2>  (19) 
0.0

>  <TOX21_p53_BLA_p5_ratio>  (19) 
1.0

>  <TOX21_p53_BLA_p5_viability>  (19) 
1.0

>  <Tanguay_ZF_120hpf_AXIS_up>  (19) 
0.0

>  <Tanguay_ZF_120hpf_ActivityScore>  (19) 
1.0

>  <Tanguay_ZF_120hpf_BRAI_up>  (19) 
0.0

>  <Tanguay_ZF_120hpf_CFIN_up>  (19) 
0.0

>  <Tanguay_ZF_120hpf_CIRC_up>  (19) 
0.0

>  <Tanguay_ZF_120hpf_EYE_up>  (19) 
0.0

>  <Tanguay_ZF_120hpf_JAW_up>  (19) 
0.0

>  <Tanguay_ZF_120hpf_MORT_up>  (19) 
1.0

>  <Tanguay_ZF_120hpf_NC_up>  (19) 
0.0

>  <Tanguay_ZF_120hpf_OTIC_up>  (19) 
0.0

>  <Tanguay_ZF_120hpf_PE_up>  (19) 
0.0

>  <Tanguay_ZF_120hpf_PFIN_up>  (19) 
0.0

>  <Tanguay_ZF_120hpf_PIG_up>  (19) 
0.0

>  <Tanguay_ZF_120hpf_SNOU_up>  (19) 
0.0

>  <Tanguay_ZF_120hpf_SOMI_up>  (19) 
0.0

>  <Tanguay_ZF_120hpf_SWIM_up>  (19) 
0.0

>  <Tanguay_ZF_120hpf_TRUN_up>  (19) 
0.0

>  <Tanguay_ZF_120hpf_TR_up>  (19) 
0.0

>  <Tanguay_ZF_120hpf_YSE_up>  (19) 
0.0

>  <UPITT_HCI_U2OS_AR_TIF2_Nucleoli_Agonist>  (19) 
1.0

>  <UPITT_HCI_U2OS_AR_TIF2_Nucleoli_Antagonist>  (19) 
1.0

>  <UPITT_HCI_U2OS_AR_TIF2_Nucleoli_Cytoplasm_Ratio_Agonist>  (19) 
1.0

>  <UPITT_HCI_U2OS_AR_TIF2_Nucleoli_Cytoplasm_Ratio_Antagonist>  (19) 
0.0

>  <NVS_NR_mERa>  (19) 
1.0

$$$$

     RDKit          3D

 18 18  0  0  0  0  0  0  0  0999 V2000
    0.0000    0.0000    0.0000 C   0  0  0  0  0  0  0  0  0  0  0  0
    0.0000    0.0000    0.0000 C   0  0  0  0  0  0  0  0  0  0  0  0
    0.0000    0.0000    0.0000 C   0  0  0  0  0  0  0  0  0  0  0  0
    0.0000    0.0000    0.0000 C   0  0  0  0  0  0  0  0  0  0  0  0
    0.0000    0.0000    0.0000 C   0  0  0  0  0  0  0  0  0  0  0  0
    0.0000    0.0000    0.0000 C   0  0  0  0  0  0  0  0  0  0  0  0
    0.0000    0.0000    0.0000 C   0  0  0  0  0  0  0  0  0  0  0  0
    0.0000    0.0000    0.0000 C   0  0  0  0  0  0  0  0  0  0  0  0
    0.0000    0.0000    0.0000 O   0  0  0  0  0  0  0  0  0  0  0  0
    0.0000    0.0000    0.0000 C   0  0  0  0  0  0  0  0  0  0  0  0
    0.0000    0.0000    0.0000 O   0  0  0  0  0  0  0  0  0  0  0  0
    0.0000    0.0000    0.0000 C   0  0  0  0  0  0  0  0  0  0  0  0
    0.0000    0.0000    0.0000 C   0  0  0  0  0  0  0  0  0  0  0  0
    0.0000    0.0000    0.0000 C   0  0  0  0  0  0  0  0  0  0  0  0
    0.0000    0.0000    0.0000 C   0  0  0  0  0  0  0  0  0  0  0  0
    0.0000    0.0000    0.0000 C   0  0  0  0  0  0  0  0  0  0  0  0
    0.0000    0.0000    0.0000 C   0  0  0  0  0  0  0  0  0  0  0  0
    0.0000    0.0000    0.0000 O   0  0  0  0  0  0  0  0  0  0  0  0
  1  2  1  0
  2  3  1  0
  3  4  1  0
  4  5  1  0
  5  6  1  0
  6  7  1  0
  5  8  1  0
  8  9  1  0
  9 10  1  0
 10 11  2  0
 10 12  1  0
 12 13  2  0
 13 14  1  0
 14 15  2  0
 15 16  1  0
 16 17  2  0
 15 18  1  0
 17 12  1  0
M  END
>  <CASRN>  (20) 
5153-25-3

>  <Name>  (20) 
Benzoic acid, 4-hydroxy-, 2-ethylhexyl ester

>  <Active>  (20) 
2

>  <Inactive>  (20) 
0

>  <Bioactivity>  (20) 
Active

>  <Min LEL>  (20) 
200.0

>  <Max HDT>  (20) 
nan

>  <Class>  (20) 
1

>  <Code>  (20) 
C5153253

>  <NVS_NR_hER>  (20) 
1.0

>  <NVS_NR_hGR>  (20) 
1.0

>  <NVS_NR_rAR>  (20) 
1.0

>  <OT_ER_ERaERb_1440>  (20) 
1.0

>  <OT_FXR_FXRSRC1_0480>  (20) 
1.0

>  <OT_PPARg_PPARgSRC1_1440>  (20) 
0.0

>  <OT_FXR_FXRSRC1_1440>  (20) 
0.0

>  <OT_NURR1_NURR1RXRa_0480>  (20) 
0.0

>  <OT_NURR1_NURR1RXRa_1440>  (20) 
0.0

>  <OT_PPARg_PPARgSRC1_0480>  (20) 
0.0

>  <OT_AR_ARELUC_AG_1440>  (20) 
1.0

>  <OT_ERa_EREGFP_0120>  (20) 
1.0

>  <ATG_CAR_TRANS_up>  (20) 
0.0

>  <ATG_E2F_CIS_dn>  (20) 
0.0

>  <ATG_EGR_CIS_up>  (20) 
0.0

>  <ATG_ERa_TRANS_dn>  (20) 
0.0

>  <ATG_ERa_TRANS_up>  (20) 
1.0

>  <ATG_FXR_TRANS_dn>  (20) 
0.0

>  <ATG_GLI_CIS_dn>  (20) 
0.0

>  <ATG_GRE_CIS_up>  (20) 
0.0

>  <ATG_LXRa_TRANS_dn>  (20) 
0.0

>  <ATG_LXRa_TRANS_up>  (20) 
0.0

>  <ATG_NRF1_CIS_up>  (20) 
0.0

>  <ATG_NURR1_TRANS_up>  (20) 
0.0

>  <ATG_Sox_CIS_dn>  (20) 
0.0

>  <ATG_Sox_CIS_up>  (20) 
0.0

>  <ATG_Sp1_CIS_up>  (20) 
0.0

>  <ATG_TGFb_CIS_up>  (20) 
0.0

>  <TOX21_ARE_BLA_agonist_ratio>  (20) 
1.0

>  <TOX21_RAR_LUC_Antagonist>  (20) 
0.0

>  <ATG_LXRb_TRANS_dn>  (20) 
0.0

>  <ATG_CAR_TRANS_dn>  (20) 
0.0

>  <ATG_BRE_CIS_dn>  (20) 
0.0

>  <ATG_E2F_CIS_up>  (20) 
0.0

>  <TOX21_TSHR_Agonist_ratio>  (20) 
0.0

>  <ACEA_ER_80hr>  (20) 
1.0

>  <TOX21_CAR_Agonist_viabillity>  (20) 
1.0

>  <TOX21_PR_BLA_Agonist_viability>  (20) 
1.0

>  <TOX21_RT_HEPG2_FLO_40hr_ctrl_viability>  (20) 
1.0

>  <TOX21_AhR_LUC_Agonist_viability>  (20) 
0.0

>  <TOX21_ERR_viability>  (20) 
1.0

>  <TOX21_p53_BLA_p3_viability>  (20) 
1.0

>  <NVS_NR_cAR>  (20) 
0.0

>  <NVS_NR_hPR>  (20) 
0.0

>  <BSK_3C_HLADR_down>  (20) 
1.0

>  <BSK_3C_Vis_down>  (20) 
1.0

>  <BSK_3C_uPAR_down>  (20) 
1.0

>  <NVS_NR_hAR>  (20) 
0.0

>  <NVS_NR_bER>  (20) 
1.0

>  <ACEA_AR_agonist_80hr>  (20) 
0.0

>  <ACEA_AR_agonist_AUC_viability>  (20) 
0.0

>  <ACEA_AR_antagonist_80hr>  (20) 
1.0

>  <ACEA_AR_antagonist_AUC_viability>  (20) 
1.0

>  <ACEA_ER_AUC_viability>  (20) 
1.0

>  <ATG_AP_1_CIS_dn>  (20) 
0.0

>  <ATG_AP_1_CIS_up>  (20) 
0.0

>  <ATG_AP_2_CIS_dn>  (20) 
0.0

>  <ATG_AP_2_CIS_up>  (20) 
0.0

>  <ATG_AR_TRANS_dn>  (20) 
0.0

>  <ATG_AR_TRANS_up>  (20) 
0.0

>  <ATG_Ahr_CIS_dn>  (20) 
0.0

>  <ATG_Ahr_CIS_up>  (20) 
0.0

>  <ATG_BRE_CIS_up>  (20) 
0.0

>  <ATG_CMV_CIS_dn>  (20) 
0.0

>  <ATG_CMV_CIS_up>  (20) 
0.0

>  <ATG_CRE_CIS_dn>  (20) 
0.0

>  <ATG_CRE_CIS_up>  (20) 
0.0

>  <ATG_C_EBP_CIS_dn>  (20) 
0.0

>  <ATG_C_EBP_CIS_up>  (20) 
0.0

>  <ATG_DR4_LXR_CIS_dn>  (20) 
0.0

>  <ATG_DR4_LXR_CIS_up>  (20) 
0.0

>  <ATG_DR5_CIS_dn>  (20) 
0.0

>  <ATG_DR5_CIS_up>  (20) 
0.0

>  <ATG_EGR_CIS_dn>  (20) 
0.0

>  <ATG_ERE_CIS_dn>  (20) 
0.0

>  <ATG_ERE_CIS_up>  (20) 
1.0

>  <ATG_ERRa_TRANS_dn>  (20) 
0.0

>  <ATG_ERRa_TRANS_up>  (20) 
0.0

>  <ATG_ERRg_TRANS_dn>  (20) 
0.0

>  <ATG_ERRg_TRANS_up>  (20) 
0.0

>  <ATG_E_Box_CIS_dn>  (20) 
0.0

>  <ATG_E_Box_CIS_up>  (20) 
0.0

>  <ATG_Ets_CIS_dn>  (20) 
0.0

>  <ATG_Ets_CIS_up>  (20) 
0.0

>  <ATG_FXR_TRANS_up>  (20) 
0.0

>  <ATG_FoxA2_CIS_dn>  (20) 
0.0

>  <ATG_FoxA2_CIS_up>  (20) 
0.0

>  <ATG_FoxO_CIS_dn>  (20) 
0.0

>  <ATG_FoxO_CIS_up>  (20) 
0.0

>  <ATG_GAL4_TRANS_dn>  (20) 
0.0

>  <ATG_GAL4_TRANS_up>  (20) 
0.0

>  <ATG_GATA_CIS_dn>  (20) 
0.0

>  <ATG_GATA_CIS_up>  (20) 
0.0

>  <ATG_GLI_CIS_up>  (20) 
0.0

>  <ATG_GRE_CIS_dn>  (20) 
0.0

>  <ATG_GR_TRANS_dn>  (20) 
0.0

>  <ATG_GR_TRANS_up>  (20) 
0.0

>  <ATG_HIF1a_CIS_dn>  (20) 
0.0

>  <ATG_HIF1a_CIS_up>  (20) 
0.0

>  <ATG_HNF4a_TRANS_dn>  (20) 
0.0

>  <ATG_HNF4a_TRANS_up>  (20) 
0.0

>  <ATG_HNF6_CIS_dn>  (20) 
0.0

>  <ATG_HNF6_CIS_up>  (20) 
0.0

>  <ATG_HSE_CIS_dn>  (20) 
0.0

>  <ATG_HSE_CIS_up>  (20) 
0.0

>  <ATG_IR1_CIS_dn>  (20) 
0.0

>  <ATG_IR1_CIS_up>  (20) 
0.0

>  <ATG_ISRE_CIS_dn>  (20) 
0.0

>  <ATG_ISRE_CIS_up>  (20) 
0.0

>  <ATG_LXRb_TRANS_up>  (20) 
0.0

>  <ATG_MRE_CIS_dn>  (20) 
0.0

>  <ATG_MRE_CIS_up>  (20) 
0.0

>  <ATG_M_06_CIS_dn>  (20) 
0.0

>  <ATG_M_06_CIS_up>  (20) 
0.0

>  <ATG_M_06_TRANS_dn>  (20) 
0.0

>  <ATG_M_06_TRANS_up>  (20) 
0.0

>  <ATG_M_19_CIS_dn>  (20) 
0.0

>  <ATG_M_19_CIS_up>  (20) 
0.0

>  <ATG_M_19_TRANS_dn>  (20) 
0.0

>  <ATG_M_19_TRANS_up>  (20) 
0.0

>  <ATG_M_32_CIS_dn>  (20) 
0.0

>  <ATG_M_32_CIS_up>  (20) 
0.0

>  <ATG_M_32_TRANS_dn>  (20) 
0.0

>  <ATG_M_32_TRANS_up>  (20) 
0.0

>  <ATG_M_61_CIS_dn>  (20) 
0.0

>  <ATG_M_61_CIS_up>  (20) 
0.0

>  <ATG_M_61_TRANS_dn>  (20) 
0.0

>  <ATG_M_61_TRANS_up>  (20) 
0.0

>  <ATG_Myb_CIS_dn>  (20) 
0.0

>  <ATG_Myb_CIS_up>  (20) 
0.0

>  <ATG_Myc_CIS_dn>  (20) 
0.0

>  <ATG_Myc_CIS_up>  (20) 
0.0

>  <ATG_NFI_CIS_dn>  (20) 
0.0

>  <ATG_NFI_CIS_up>  (20) 
0.0

>  <ATG_NF_kB_CIS_dn>  (20) 
0.0

>  <ATG_NF_kB_CIS_up>  (20) 
0.0

>  <ATG_NRF1_CIS_dn>  (20) 
0.0

>  <ATG_NRF2_ARE_CIS_dn>  (20) 
0.0

>  <ATG_NRF2_ARE_CIS_up>  (20) 
0.0

>  <ATG_NURR1_TRANS_dn>  (20) 
0.0

>  <ATG_Oct_MLP_CIS_dn>  (20) 
0.0

>  <ATG_Oct_MLP_CIS_up>  (20) 
0.0

>  <ATG_PBREM_CIS_dn>  (20) 
0.0

>  <ATG_PBREM_CIS_up>  (20) 
0.0

>  <ATG_PPARa_TRANS_dn>  (20) 
0.0

>  <ATG_PPARa_TRANS_up>  (20) 
1.0

>  <ATG_PPARd_TRANS_dn>  (20) 
0.0

>  <ATG_PPARd_TRANS_up>  (20) 
0.0

>  <ATG_PPARg_TRANS_dn>  (20) 
0.0

>  <ATG_PPARg_TRANS_up>  (20) 
0.0

>  <ATG_PPRE_CIS_dn>  (20) 
0.0

>  <ATG_PPRE_CIS_up>  (20) 
0.0

>  <ATG_PXRE_CIS_dn>  (20) 
0.0

>  <ATG_PXRE_CIS_up>  (20) 
1.0

>  <ATG_PXR_TRANS_dn>  (20) 
0.0

>  <ATG_PXR_TRANS_up>  (20) 
1.0

>  <ATG_Pax6_CIS_dn>  (20) 
0.0

>  <ATG_Pax6_CIS_up>  (20) 
0.0

>  <ATG_RARa_TRANS_dn>  (20) 
0.0

>  <ATG_RARa_TRANS_up>  (20) 
0.0

>  <ATG_RARb_TRANS_dn>  (20) 
0.0

>  <ATG_RARb_TRANS_up>  (20) 
0.0

>  <ATG_RARg_TRANS_dn>  (20) 
0.0

>  <ATG_RARg_TRANS_up>  (20) 
0.0

>  <ATG_RORE_CIS_dn>  (20) 
0.0

>  <ATG_RORE_CIS_up>  (20) 
0.0

>  <ATG_RORb_TRANS_dn>  (20) 
0.0

>  <ATG_RORb_TRANS_up>  (20) 
0.0

>  <ATG_RORg_TRANS_dn>  (20) 
0.0

>  <ATG_RORg_TRANS_up>  (20) 
0.0

>  <ATG_RXRa_TRANS_dn>  (20) 
0.0

>  <ATG_RXRa_TRANS_up>  (20) 
0.0

>  <ATG_RXRb_TRANS_dn>  (20) 
0.0

>  <ATG_RXRb_TRANS_up>  (20) 
1.0

>  <ATG_SREBP_CIS_dn>  (20) 
0.0

>  <ATG_SREBP_CIS_up>  (20) 
0.0

>  <ATG_STAT3_CIS_dn>  (20) 
0.0

>  <ATG_STAT3_CIS_up>  (20) 
0.0

>  <ATG_Sp1_CIS_dn>  (20) 
0.0

>  <ATG_TAL_CIS_dn>  (20) 
0.0

>  <ATG_TAL_CIS_up>  (20) 
0.0

>  <ATG_TA_CIS_dn>  (20) 
0.0

>  <ATG_TA_CIS_up>  (20) 
0.0

>  <ATG_TCF_b_cat_CIS_dn>  (20) 
0.0

>  <ATG_TCF_b_cat_CIS_up>  (20) 
0.0

>  <ATG_TGFb_CIS_dn>  (20) 
0.0

>  <ATG_THRa1_TRANS_dn>  (20) 
0.0

>  <ATG_THRa1_TRANS_up>  (20) 
0.0

>  <ATG_VDRE_CIS_dn>  (20) 
0.0

>  <ATG_VDRE_CIS_up>  (20) 
0.0

>  <ATG_VDR_TRANS_dn>  (20) 
0.0

>  <ATG_VDR_TRANS_up>  (20) 
0.0

>  <ATG_XTT_Cytotoxicity_up>  (20) 
1.0

>  <ATG_Xbp1_CIS_dn>  (20) 
0.0

>  <ATG_Xbp1_CIS_up>  (20) 
0.0

>  <ATG_p53_CIS_dn>  (20) 
0.0

>  <ATG_p53_CIS_up>  (20) 
0.0

>  <NCCT_HEK293T_CellTiterGLO>  (20) 
1.0

>  <NCCT_QuantiLum_inhib_2_dn>  (20) 
0.0

>  <NCCT_TPO_AUR_dn>  (20) 
1.0

>  <NHEERL_MED_hDIO1_dn>  (20) 
1.0

>  <NVS_GPCR_rTRH>  (20) 
0.0

>  <NVS_MP_hPBR>  (20) 
1.0

>  <NVS_MP_rPBR>  (20) 
1.0

>  <NVS_NR_hPPARa>  (20) 
0.0

>  <NVS_NR_hPPARg>  (20) 
1.0

>  <NVS_NR_hPXR>  (20) 
0.0

>  <NVS_NR_hRARa_Agonist>  (20) 
0.0

>  <OT_AR_ARSRC1_0480>  (20) 
1.0

>  <OT_AR_ARSRC1_0960>  (20) 
1.0

>  <OT_ER_ERaERa_0480>  (20) 
1.0

>  <OT_ER_ERaERa_1440>  (20) 
1.0

>  <OT_ER_ERaERb_0480>  (20) 
1.0

>  <OT_ER_ERbERb_0480>  (20) 
1.0

>  <OT_ER_ERbERb_1440>  (20) 
1.0

>  <OT_ERa_EREGFP_0480>  (20) 
1.0

>  <TOX21_AP1_BLA_Agonist_ch1>  (20) 
1.0

>  <TOX21_AP1_BLA_Agonist_ch2>  (20) 
0.0

>  <TOX21_AP1_BLA_Agonist_ratio>  (20) 
1.0

>  <TOX21_AP1_BLA_Agonist_viability>  (20) 
1.0

>  <TOX21_ARE_BLA_Agonist_ch1>  (20) 
1.0

>  <TOX21_ARE_BLA_Agonist_ch2>  (20) 
0.0

>  <TOX21_ARE_BLA_agonist_viability>  (20) 
1.0

>  <TOX21_AR_BLA_Agonist_ch1>  (20) 
0.0

>  <TOX21_AR_BLA_Agonist_ch2>  (20) 
0.0

>  <TOX21_AR_BLA_Agonist_ratio>  (20) 
0.0

>  <TOX21_AR_BLA_Antagonist_ch1>  (20) 
0.0

>  <TOX21_AR_BLA_Antagonist_ch2>  (20) 
0.0

>  <TOX21_AR_BLA_Antagonist_ratio>  (20) 
0.0

>  <TOX21_AR_BLA_Antagonist_viability>  (20) 
0.0

>  <TOX21_AR_LUC_MDAKB2_Agonist>  (20) 
0.0

>  <TOX21_AR_LUC_MDAKB2_Agonist_3uM_Nilutamide>  (20) 
0.0

>  <TOX21_AR_LUC_MDAKB2_Agonist_3uM_Nilutamide_viability>  (20) 
0.0

>  <TOX21_AR_LUC_MDAKB2_Antagonist_0.5nM_R1881>  (20) 
1.0

>  <TOX21_AR_LUC_MDAKB2_Antagonist_0.5nM_R1881_viability>  (20) 
0.0

>  <TOX21_AR_LUC_MDAKB2_Antagonist_10nM_R1881>  (20) 
1.0

>  <TOX21_AR_LUC_MDAKB2_Antagonist_10nM_R1881_viability>  (20) 
1.0

>  <TOX21_AhR_LUC_Agonist>  (20) 
0.0

>  <TOX21_Aromatase_Inhibition>  (20) 
1.0

>  <TOX21_Aromatase_Inhibition_viability>  (20) 
1.0

>  <TOX21_AutoFluor_HEK293_Cell_blue>  (20) 
0.0

>  <TOX21_AutoFluor_HEK293_Cell_green>  (20) 
0.0

>  <TOX21_AutoFluor_HEK293_Cell_red>  (20) 
0.0

>  <TOX21_AutoFluor_HEK293_Media_blue>  (20) 
0.0

>  <TOX21_AutoFluor_HEK293_Media_green>  (20) 
0.0

>  <TOX21_AutoFluor_HEK293_Media_red>  (20) 
0.0

>  <TOX21_AutoFluor_HEPG2_Cell_blue>  (20) 
0.0

>  <TOX21_AutoFluor_HEPG2_Cell_green>  (20) 
0.0

>  <TOX21_AutoFluor_HEPG2_Cell_red>  (20) 
0.0

>  <TOX21_AutoFluor_HEPG2_Media_blue>  (20) 
0.0

>  <TOX21_AutoFluor_HEPG2_Media_green>  (20) 
0.0

>  <TOX21_AutoFluor_HEPG2_Media_red>  (20) 
0.0

>  <TOX21_CAR_Agonist>  (20) 
0.0

>  <TOX21_CAR_Antagonist>  (20) 
0.0

>  <TOX21_CAR_Antagonist_viability>  (20) 
1.0

>  <TOX21_CASP3_CHO>  (20) 
0.0

>  <TOX21_CASP3_CHO_viability>  (20) 
1.0

>  <TOX21_CASP3_HEPG2>  (20) 
0.0

>  <TOX21_CASP3_HEPG2_viability>  (20) 
1.0

>  <TOX21_DT40>  (20) 
1.0

>  <TOX21_DT40_100>  (20) 
1.0

>  <TOX21_DT40_657>  (20) 
1.0

>  <TOX21_ELG1_LUC_Agonist>  (20) 
0.0

>  <TOX21_ELG1_LUC_Agonist_viability>  (20) 
1.0

>  <TOX21_ERR_Agonist>  (20) 
0.0

>  <TOX21_ERR_Antagonist>  (20) 
1.0

>  <TOX21_ERa_BLA_Agonist_ch1>  (20) 
0.0

>  <TOX21_ERa_BLA_Agonist_ch2>  (20) 
1.0

>  <TOX21_ERa_BLA_Agonist_ratio>  (20) 
1.0

>  <TOX21_ERa_BLA_Antagonist_ch1>  (20) 
0.0

>  <TOX21_ERa_BLA_Antagonist_ch2>  (20) 
1.0

>  <TOX21_ERa_BLA_Antagonist_ratio>  (20) 
1.0

>  <TOX21_ERa_BLA_Antagonist_viability>  (20) 
1.0

>  <TOX21_ERa_LUC_VM7_Agonist>  (20) 
1.0

>  <TOX21_ERa_LUC_VM7_Agonist_10nM_ICI182780>  (20) 
1.0

>  <TOX21_ERa_LUC_VM7_Agonist_10nM_ICI182780_viability>  (20) 
1.0

>  <TOX21_ERa_LUC_VM7_Antagonist_0.1nM_E2>  (20) 
1.0

>  <TOX21_ERa_LUC_VM7_Antagonist_0.1nM_E2_viability>  (20) 
0.0

>  <TOX21_ERa_LUC_VM7_Antagonist_0.5nM_E2>  (20) 
1.0

>  <TOX21_ERa_LUC_VM7_Antagonist_0.5nM_E2_viability>  (20) 
0.0

>  <TOX21_ERb_BLA_Agonist_ch1>  (20) 
1.0

>  <TOX21_ERb_BLA_Agonist_ch2>  (20) 
0.0

>  <TOX21_ERb_BLA_Agonist_ratio>  (20) 
1.0

>  <TOX21_ERb_BLA_Agonist_viability>  (20) 
1.0

>  <TOX21_ERb_BLA_Antagonist_ch1>  (20) 
0.0

>  <TOX21_ERb_BLA_Antagonist_ch2>  (20) 
1.0

>  <TOX21_ERb_BLA_Antagonist_ratio>  (20) 
1.0

>  <TOX21_ERb_BLA_Antagonist_viability>  (20) 
1.0

>  <TOX21_ESRE_BLA_ch1>  (20) 
1.0

>  <TOX21_ESRE_BLA_ch2>  (20) 
0.0

>  <TOX21_ESRE_BLA_ratio>  (20) 
1.0

>  <TOX21_ESRE_BLA_viability>  (20) 
1.0

>  <TOX21_FXR_BLA_Antagonist_ch1>  (20) 
0.0

>  <TOX21_FXR_BLA_Antagonist_ch2>  (20) 
1.0

>  <TOX21_FXR_BLA_agonist_ch1>  (20) 
1.0

>  <TOX21_FXR_BLA_agonist_ch2>  (20) 
0.0

>  <TOX21_FXR_BLA_agonist_ratio>  (20) 
1.0

>  <TOX21_FXR_BLA_agonist_viability>  (20) 
1.0

>  <TOX21_FXR_BLA_antagonist_ratio>  (20) 
1.0

>  <TOX21_FXR_BLA_antagonist_viability>  (20) 
1.0

>  <TOX21_GR_BLA_Agonist_ch1>  (20) 
1.0

>  <TOX21_GR_BLA_Agonist_ch2>  (20) 
0.0

>  <TOX21_GR_BLA_Agonist_ratio>  (20) 
1.0

>  <TOX21_GR_BLA_Antagonist_ch1>  (20) 
0.0

>  <TOX21_GR_BLA_Antagonist_ch2>  (20) 
1.0

>  <TOX21_GR_BLA_Antagonist_ratio>  (20) 
0.0

>  <TOX21_GR_BLA_Antagonist_viability>  (20) 
1.0

>  <TOX21_H2AX_HTRF_CHO_Agonist_ch1>  (20) 
0.0

>  <TOX21_H2AX_HTRF_CHO_Agonist_ch2>  (20) 
0.0

>  <TOX21_H2AX_HTRF_CHO_Agonist_ratio>  (20) 
0.0

>  <TOX21_H2AX_HTRF_CHO_viability>  (20) 
1.0

>  <TOX21_HDAC_Inhibition>  (20) 
0.0

>  <TOX21_HDAC_Inhibition_viability>  (20) 
0.0

>  <TOX21_HRE_BLA_Agonist_ch1>  (20) 
1.0

>  <TOX21_HRE_BLA_Agonist_ch2>  (20) 
0.0

>  <TOX21_HRE_BLA_Agonist_ratio>  (20) 
1.0

>  <TOX21_HRE_BLA_Agonist_viability>  (20) 
1.0

>  <TOX21_HSE_BLA_agonist_ch1>  (20) 
1.0

>  <TOX21_HSE_BLA_agonist_ch2>  (20) 
0.0

>  <TOX21_HSE_BLA_agonist_ratio>  (20) 
1.0

>  <TOX21_HSE_BLA_agonist_viability>  (20) 
1.0

>  <TOX21_LUC_Biochem>  (20) 
0.0

>  <TOX21_MMP_fitc>  (20) 
1.0

>  <TOX21_MMP_ratio_down>  (20) 
1.0

>  <TOX21_MMP_ratio_up>  (20) 
0.0

>  <TOX21_MMP_rhodamine>  (20) 
1.0

>  <TOX21_MMP_viability>  (20) 
1.0

>  <TOX21_NFkB_BLA_agonist_ch1>  (20) 
1.0

>  <TOX21_NFkB_BLA_agonist_ch2>  (20) 
0.0

>  <TOX21_NFkB_BLA_agonist_ratio>  (20) 
1.0

>  <TOX21_NFkB_BLA_agonist_viability>  (20) 
1.0

>  <TOX21_PGC_ERR_Agonist>  (20) 
0.0

>  <TOX21_PGC_ERR_Antagonist>  (20) 
0.0

>  <TOX21_PGC_ERR_viability>  (20) 
1.0

>  <TOX21_PPARd_BLA_Agonist_viability>  (20) 
1.0

>  <TOX21_PPARd_BLA_Antagonist_ch1>  (20) 
0.0

>  <TOX21_PPARd_BLA_Antagonist_ch2>  (20) 
0.0

>  <TOX21_PPARd_BLA_agonist_ch1>  (20) 
0.0

>  <TOX21_PPARd_BLA_agonist_ch2>  (20) 
0.0

>  <TOX21_PPARd_BLA_agonist_ratio>  (20) 
1.0

>  <TOX21_PPARd_BLA_antagonist_ratio>  (20) 
0.0

>  <TOX21_PPARd_BLA_antagonist_viability>  (20) 
1.0

>  <TOX21_PPARg_BLA_Agonist_ch1>  (20) 
0.0

>  <TOX21_PPARg_BLA_Agonist_ch2>  (20) 
0.0

>  <TOX21_PPARg_BLA_Agonist_ratio>  (20) 
0.0

>  <TOX21_PPARg_BLA_Antagonist_ch1>  (20) 
0.0

>  <TOX21_PPARg_BLA_Antagonist_ch2>  (20) 
0.0

>  <TOX21_PPARg_BLA_antagonist_ratio>  (20) 
0.0

>  <TOX21_PPARg_BLA_antagonist_viability>  (20) 
1.0

>  <TOX21_PR_BLA_Agonist_ch1>  (20) 
1.0

>  <TOX21_PR_BLA_Agonist_ch2>  (20) 
0.0

>  <TOX21_PR_BLA_Agonist_ratio>  (20) 
0.0

>  <TOX21_PR_BLA_Antagonist_ch1>  (20) 
0.0

>  <TOX21_PR_BLA_Antagonist_ch2>  (20) 
1.0

>  <TOX21_PR_BLA_Antagonist_ratio>  (20) 
1.0

>  <TOX21_PR_BLA_Antagonist_viability>  (20) 
0.0

>  <TOX21_PXR_Agonist>  (20) 
0.0

>  <TOX21_PXR_viability>  (20) 
1.0

>  <TOX21_RAR_LUC_Agonist>  (20) 
0.0

>  <TOX21_RAR_LUC_Agonist_viability>  (20) 
1.0

>  <TOX21_RAR_LUC_Antagonist_viability>  (20) 
0.0

>  <TOX21_RORg_LUC_CHO_Antagonist>  (20) 
0.0

>  <TOX21_RORg_LUC_CHO_Antagonist_viability>  (20) 
1.0

>  <TOX21_RT_HEK293_FLO_00hr_viability>  (20) 
0.0

>  <TOX21_RT_HEK293_FLO_08hr_viability>  (20) 
1.0

>  <TOX21_RT_HEK293_FLO_16hr_viability>  (20) 
1.0

>  <TOX21_RT_HEK293_FLO_24hr_viability>  (20) 
1.0

>  <TOX21_RT_HEK293_FLO_32hr_viability>  (20) 
1.0

>  <TOX21_RT_HEK293_FLO_40hr_viability>  (20) 
1.0

>  <TOX21_RT_HEK293_GLO_00hr_viability>  (20) 
0.0

>  <TOX21_RT_HEK293_GLO_08hr_viability>  (20) 
1.0

>  <TOX21_RT_HEK293_GLO_16hr_viability>  (20) 
1.0

>  <TOX21_RT_HEK293_GLO_24hr_viability>  (20) 
1.0

>  <TOX21_RT_HEK293_GLO_32hr_viability>  (20) 
1.0

>  <TOX21_RT_HEK293_GLO_40hr_viability>  (20) 
1.0

>  <TOX21_RT_HEPG2_FLO_00hr_ctrl_viability>  (20) 
0.0

>  <TOX21_RT_HEPG2_FLO_08hr_viability>  (20) 
1.0

>  <TOX21_RT_HEPG2_FLO_16hr_ctrl_viability>  (20) 
1.0

>  <TOX21_RT_HEPG2_FLO_24hr_viability>  (20) 
1.0

>  <TOX21_RT_HEPG2_FLO_32hr_ctrl_viability>  (20) 
1.0

>  <TOX21_RT_HEPG2_GLO_00hr_ctrl_viability>  (20) 
1.0

>  <TOX21_RT_HEPG2_GLO_08hr_ctrl_viability>  (20) 
1.0

>  <TOX21_RT_HEPG2_GLO_16hr_ctrl_viability>  (20) 
1.0

>  <TOX21_RT_HEPG2_GLO_24hr_ctrl_viability>  (20) 
1.0

>  <TOX21_RT_HEPG2_GLO_32hr_ctrl_viability>  (20) 
0.0

>  <TOX21_RT_HEPG2_GLO_40hr_viability>  (20) 
0.0

>  <TOX21_RXR_BLA_Agonist_ch1>  (20) 
1.0

>  <TOX21_RXR_BLA_Agonist_ch2>  (20) 
0.0

>  <TOX21_RXR_BLA_Agonist_ratio>  (20) 
0.0

>  <TOX21_RXR_BLA_Agonist_viability>  (20) 
1.0

>  <TOX21_SBE_BLA_Agonist_ch1>  (20) 
0.0

>  <TOX21_SBE_BLA_Agonist_ch2>  (20) 
0.0

>  <TOX21_SBE_BLA_Agonist_ratio>  (20) 
0.0

>  <TOX21_SBE_BLA_Agonist_viability>  (20) 
0.0

>  <TOX21_SBE_BLA_Antagonist_ch1>  (20) 
0.0

>  <TOX21_SBE_BLA_Antagonist_ch2>  (20) 
1.0

>  <TOX21_SBE_BLA_Antagonist_ratio>  (20) 
1.0

>  <TOX21_SBE_BLA_Antagonist_viability>  (20) 
1.0

>  <TOX21_SSH_3T3_GLI3_Agonist>  (20) 
0.0

>  <TOX21_SSH_3T3_GLI3_Agonist_viability>  (20) 
1.0

>  <TOX21_SSH_3T3_GLI3_Antagonist>  (20) 
1.0

>  <TOX21_SSH_3T3_GLI3_Antagonist_viability>  (20) 
1.0

>  <TOX21_TRHR_HEK293_Agonist>  (20) 
1.0

>  <TOX21_TRHR_HEK293_Antagonist>  (20) 
1.0

>  <TOX21_TR_LUC_GH3_Agonist>  (20) 
0.0

>  <TOX21_TR_LUC_GH3_Antagonist>  (20) 
1.0

>  <TOX21_TR_LUC_GH3_Antagonist_viability>  (20) 
1.0

>  <TOX21_TSHR_Agonist_ch2>  (20) 
0.0

>  <TOX21_TSHR_Antagonist_ch2>  (20) 
0.0

>  <TOX21_TSHR_Antagonist_ratio>  (20) 
0.0

>  <TOX21_TSHR_HTRF_Agonist_ch1>  (20) 
0.0

>  <TOX21_TSHR_HTRF_Antagonist_ch1>  (20) 
0.0

>  <TOX21_TSHR_wt_HTRF_ch1>  (20) 
0.0

>  <TOX21_TSHR_wt_ch2>  (20) 
0.0

>  <TOX21_TSHR_wt_ratio>  (20) 
0.0

>  <TOX21_VDR_BLA_Agonist_viability>  (20) 
1.0

>  <TOX21_VDR_BLA_Antagonist_ch1>  (20) 
0.0

>  <TOX21_VDR_BLA_Antagonist_ch2>  (20) 
0.0

>  <TOX21_VDR_BLA_agonist_ch1>  (20) 
0.0

>  <TOX21_VDR_BLA_agonist_ch2>  (20) 
0.0

>  <TOX21_VDR_BLA_agonist_ratio>  (20) 
1.0

>  <TOX21_VDR_BLA_antagonist_ratio>  (20) 
1.0

>  <TOX21_VDR_BLA_antagonist_viability>  (20) 
1.0

>  <TOX21_p53_BLA_p1_ch1>  (20) 
1.0

>  <TOX21_p53_BLA_p1_ch2>  (20) 
0.0

>  <TOX21_p53_BLA_p1_ratio>  (20) 
1.0

>  <TOX21_p53_BLA_p1_viability>  (20) 
1.0

>  <TOX21_p53_BLA_p2_ch1>  (20) 
1.0

>  <TOX21_p53_BLA_p2_ch2>  (20) 
0.0

>  <TOX21_p53_BLA_p2_ratio>  (20) 
1.0

>  <TOX21_p53_BLA_p2_viability>  (20) 
1.0

>  <TOX21_p53_BLA_p3_ch1>  (20) 
1.0

>  <TOX21_p53_BLA_p3_ch2>  (20) 
0.0

>  <TOX21_p53_BLA_p3_ratio>  (20) 
1.0

>  <TOX21_p53_BLA_p4_ch1>  (20) 
1.0

>  <TOX21_p53_BLA_p4_ch2>  (20) 
0.0

>  <TOX21_p53_BLA_p4_ratio>  (20) 
1.0

>  <TOX21_p53_BLA_p4_viability>  (20) 
1.0

>  <TOX21_p53_BLA_p5_ch1>  (20) 
1.0

>  <TOX21_p53_BLA_p5_ch2>  (20) 
0.0

>  <TOX21_p53_BLA_p5_ratio>  (20) 
1.0

>  <TOX21_p53_BLA_p5_viability>  (20) 
1.0

>  <UPITT_HCI_U2OS_AR_TIF2_Nucleoli_Agonist>  (20) 
1.0

>  <UPITT_HCI_U2OS_AR_TIF2_Nucleoli_Antagonist>  (20) 
1.0

>  <UPITT_HCI_U2OS_AR_TIF2_Nucleoli_Cytoplasm_Ratio_Agonist>  (20) 
1.0

>  <UPITT_HCI_U2OS_AR_TIF2_Nucleoli_Cytoplasm_Ratio_Antagonist>  (20) 
0.0

>  <NVS_NR_mERa>  (20) 
1

$$$$

     RDKit          3D

 12 12  0  0  0  0  0  0  0  0999 V2000
    0.0000    0.0000    0.0000 C   0  0  0  0  0  0  0  0  0  0  0  0
    0.0000    0.0000    0.0000 C   0  0  0  0  0  0  0  0  0  0  0  0
    0.0000    0.0000    0.0000 C   0  0  0  0  0  0  0  0  0  0  0  0
    0.0000    0.0000    0.0000 C   0  0  0  0  0  0  0  0  0  0  0  0
    0.0000    0.0000    0.0000 C   0  0  0  0  0  0  0  0  0  0  0  0
    0.0000    0.0000    0.0000 C   0  0  0  0  0  0  0  0  0  0  0  0
    0.0000    0.0000    0.0000 C   0  0  0  0  0  0  0  0  0  0  0  0
    0.0000    0.0000    0.0000 C   0  0  0  0  0  0  0  0  0  0  0  0
    0.0000    0.0000    0.0000 C   0  0  0  0  0  0  0  0  0  0  0  0
    0.0000    0.0000    0.0000 C   0  0  0  0  0  0  0  0  0  0  0  0
    0.0000    0.0000    0.0000 C   0  0  0  0  0  0  0  0  0  0  0  0
    0.0000    0.0000    0.0000 O   0  0  0  0  0  0  0  0  0  0  0  0
  1  2  1  0
  2  3  1  0
  3  4  1  0
  3  5  1  0
  3  6  1  0
  6  7  2  0
  7  8  1  0
  8  9  2  0
  9 10  1  0
 10 11  2  0
  9 12  1  0
 11  6  1  0
M  END
>  <CASRN>  (21) 
80-46-6

>  <Name>  (21) 
4-(1,1-Dimethylpropyl)phenol

>  <Active>  (21) 
4

>  <Inactive>  (21) 
0

>  <Bioactivity>  (21) 
Active

>  <Min LEL>  (21) 
200.0

>  <Max HDT>  (21) 
nan

>  <Class>  (21) 
1

>  <Code>  (21) 
C80466

>  <NVS_NR_hER>  (21) 
1.0

>  <NVS_NR_cAR>  (21) 
1.0

>  <NVS_NR_hAR>  (21) 
1.0

>  <NVS_NR_hGR>  (21) 
0.0

>  <OT_ER_ERaERb_1440>  (21) 
1.0

>  <OT_FXR_FXRSRC1_0480>  (21) 
1.0

>  <OT_PPARg_PPARgSRC1_1440>  (21) 
0.0

>  <OT_FXR_FXRSRC1_1440>  (21) 
0.0

>  <OT_NURR1_NURR1RXRa_0480>  (21) 
0.0

>  <OT_NURR1_NURR1RXRa_1440>  (21) 
1.0

>  <OT_PPARg_PPARgSRC1_0480>  (21) 
0.0

>  <OT_AR_ARELUC_AG_1440>  (21) 
0.0

>  <OT_ERa_EREGFP_0120>  (21) 
1.0

>  <BSK_3C_HLADR_down>  (21) 
0.0

>  <BSK_3C_Vis_down>  (21) 
0.0

>  <BSK_3C_uPAR_down>  (21) 
0.0

>  <ATG_CAR_TRANS_up>  (21) 
0.0

>  <ATG_E2F_CIS_dn>  (21) 
1.0

>  <ATG_EGR_CIS_up>  (21) 
0.0

>  <ATG_ERa_TRANS_dn>  (21) 
0.0

>  <ATG_ERa_TRANS_up>  (21) 
1.0

>  <ATG_FXR_TRANS_dn>  (21) 
0.0

>  <ATG_GLI_CIS_dn>  (21) 
0.0

>  <ATG_GRE_CIS_up>  (21) 
0.0

>  <ATG_LXRa_TRANS_dn>  (21) 
0.0

>  <ATG_LXRa_TRANS_up>  (21) 
0.0

>  <ATG_NRF1_CIS_up>  (21) 
0.0

>  <ATG_NURR1_TRANS_up>  (21) 
0.0

>  <ATG_Sox_CIS_dn>  (21) 
0.0

>  <ATG_Sox_CIS_up>  (21) 
0.0

>  <ATG_Sp1_CIS_up>  (21) 
0.0

>  <ATG_TGFb_CIS_up>  (21) 
0.0

>  <TOX21_ARE_BLA_agonist_ratio>  (21) 
0.0

>  <TOX21_RAR_LUC_Antagonist>  (21) 
0.0

>  <ATG_LXRb_TRANS_dn>  (21) 
0.0

>  <ATG_CAR_TRANS_dn>  (21) 
0.0

>  <ATG_BRE_CIS_dn>  (21) 
0.0

>  <ATG_E2F_CIS_up>  (21) 
0.0

>  <TOX21_TSHR_Agonist_ratio>  (21) 
1.0

>  <ACEA_ER_80hr>  (21) 
1.0

>  <TOX21_CAR_Agonist_viabillity>  (21) 
0.0

>  <TOX21_PR_BLA_Agonist_viability>  (21) 
0.0

>  <TOX21_RT_HEPG2_FLO_40hr_ctrl_viability>  (21) 
1.0

>  <TOX21_AhR_LUC_Agonist_viability>  (21) 
0.0

>  <TOX21_ERR_viability>  (21) 
0.0

>  <TOX21_p53_BLA_p3_viability>  (21) 
0.0

>  <NVS_NR_hPR>  (21) 
1.0

>  <NVS_NR_rAR>  (21) 
1.0

>  <NVS_NR_bER>  (21) 
0.0

>  <ACEA_AR_agonist_80hr>  (21) 
0.0

>  <ACEA_AR_agonist_AUC_viability>  (21) 
1.0

>  <ACEA_AR_antagonist_80hr>  (21) 
1.0

>  <ACEA_AR_antagonist_AUC_viability>  (21) 
1.0

>  <ACEA_ER_AUC_viability>  (21) 
1.0

>  <APR_HepG2_CellCycleArrest_24h_dn>  (21) 
1.0

>  <APR_HepG2_CellCycleArrest_24h_up>  (21) 
0.0

>  <APR_HepG2_CellCycleArrest_72h_dn>  (21) 
1.0

>  <APR_HepG2_CellCycleArrest_72h_up>  (21) 
0.0

>  <APR_HepG2_CellLoss_24h_dn>  (21) 
1.0

>  <APR_HepG2_CellLoss_24h_up>  (21) 
0.0

>  <APR_HepG2_CellLoss_72h_dn>  (21) 
1.0

>  <APR_HepG2_CellLoss_72h_up>  (21) 
0.0

>  <APR_HepG2_MicrotubuleCSK_24h_dn>  (21) 
0.0

>  <APR_HepG2_MicrotubuleCSK_24h_up>  (21) 
0.0

>  <APR_HepG2_MicrotubuleCSK_72h_dn>  (21) 
0.0

>  <APR_HepG2_MicrotubuleCSK_72h_up>  (21) 
0.0

>  <APR_HepG2_MitoMass_24h_dn>  (21) 
0.0

>  <APR_HepG2_MitoMass_24h_up>  (21) 
0.0

>  <APR_HepG2_MitoMass_72h_dn>  (21) 
0.0

>  <APR_HepG2_MitoMass_72h_up>  (21) 
1.0

>  <APR_HepG2_MitoMembPot_24h_dn>  (21) 
1.0

>  <APR_HepG2_MitoMembPot_24h_up>  (21) 
0.0

>  <APR_HepG2_MitoMembPot_72h_dn>  (21) 
1.0

>  <APR_HepG2_MitoMembPot_72h_up>  (21) 
0.0

>  <APR_HepG2_MitoticArrest_24h_dn>  (21) 
0.0

>  <APR_HepG2_MitoticArrest_24h_up>  (21) 
1.0

>  <APR_HepG2_MitoticArrest_72h_dn>  (21) 
0.0

>  <APR_HepG2_MitoticArrest_72h_up>  (21) 
1.0

>  <APR_HepG2_NuclearSize_24h_dn>  (21) 
0.0

>  <APR_HepG2_NuclearSize_24h_up>  (21) 
0.0

>  <APR_HepG2_NuclearSize_72h_dn>  (21) 
0.0

>  <APR_HepG2_NuclearSize_72h_up>  (21) 
0.0

>  <APR_HepG2_OxidativeStress_24h_dn>  (21) 
0.0

>  <APR_HepG2_OxidativeStress_24h_up>  (21) 
0.0

>  <APR_HepG2_OxidativeStress_72h_dn>  (21) 
0.0

>  <APR_HepG2_OxidativeStress_72h_up>  (21) 
0.0

>  <APR_HepG2_StressKinase_24h_dn>  (21) 
0.0

>  <APR_HepG2_StressKinase_24h_up>  (21) 
0.0

>  <APR_HepG2_StressKinase_72h_dn>  (21) 
0.0

>  <APR_HepG2_StressKinase_72h_up>  (21) 
0.0

>  <APR_HepG2_p53Act_24h_dn>  (21) 
0.0

>  <APR_HepG2_p53Act_24h_up>  (21) 
1.0

>  <APR_HepG2_p53Act_72h_dn>  (21) 
0.0

>  <APR_HepG2_p53Act_72h_up>  (21) 
1.0

>  <ATG_AP_1_CIS_dn>  (21) 
0.0

>  <ATG_AP_1_CIS_up>  (21) 
1.0

>  <ATG_AP_2_CIS_dn>  (21) 
0.0

>  <ATG_AP_2_CIS_up>  (21) 
0.0

>  <ATG_AR_TRANS_dn>  (21) 
0.0

>  <ATG_AR_TRANS_up>  (21) 
0.0

>  <ATG_Ahr_CIS_dn>  (21) 
0.0

>  <ATG_Ahr_CIS_up>  (21) 
0.0

>  <ATG_BRE_CIS_up>  (21) 
1.0

>  <ATG_CMV_CIS_dn>  (21) 
0.0

>  <ATG_CMV_CIS_up>  (21) 
1.0

>  <ATG_CRE_CIS_dn>  (21) 
0.0

>  <ATG_CRE_CIS_up>  (21) 
0.0

>  <ATG_C_EBP_CIS_dn>  (21) 
1.0

>  <ATG_C_EBP_CIS_up>  (21) 
0.0

>  <ATG_DR4_LXR_CIS_dn>  (21) 
1.0

>  <ATG_DR4_LXR_CIS_up>  (21) 
0.0

>  <ATG_DR5_CIS_dn>  (21) 
0.0

>  <ATG_DR5_CIS_up>  (21) 
0.0

>  <ATG_EGR_CIS_dn>  (21) 
0.0

>  <ATG_ERE_CIS_dn>  (21) 
0.0

>  <ATG_ERE_CIS_up>  (21) 
1.0

>  <ATG_ERRa_TRANS_dn>  (21) 
0.0

>  <ATG_ERRa_TRANS_up>  (21) 
0.0

>  <ATG_ERRg_TRANS_dn>  (21) 
0.0

>  <ATG_ERRg_TRANS_up>  (21) 
0.0

>  <ATG_E_Box_CIS_dn>  (21) 
0.0

>  <ATG_E_Box_CIS_up>  (21) 
0.0

>  <ATG_Ets_CIS_dn>  (21) 
0.0

>  <ATG_Ets_CIS_up>  (21) 
0.0

>  <ATG_FXR_TRANS_up>  (21) 
0.0

>  <ATG_FoxA2_CIS_dn>  (21) 
0.0

>  <ATG_FoxA2_CIS_up>  (21) 
0.0

>  <ATG_FoxO_CIS_dn>  (21) 
0.0

>  <ATG_FoxO_CIS_up>  (21) 
0.0

>  <ATG_GAL4_TRANS_dn>  (21) 
0.0

>  <ATG_GAL4_TRANS_up>  (21) 
0.0

>  <ATG_GATA_CIS_dn>  (21) 
0.0

>  <ATG_GATA_CIS_up>  (21) 
0.0

>  <ATG_GLI_CIS_up>  (21) 
0.0

>  <ATG_GRE_CIS_dn>  (21) 
0.0

>  <ATG_GR_TRANS_dn>  (21) 
0.0

>  <ATG_GR_TRANS_up>  (21) 
0.0

>  <ATG_HIF1a_CIS_dn>  (21) 
1.0

>  <ATG_HIF1a_CIS_up>  (21) 
0.0

>  <ATG_HNF4a_TRANS_dn>  (21) 
0.0

>  <ATG_HNF4a_TRANS_up>  (21) 
0.0

>  <ATG_HNF6_CIS_dn>  (21) 
0.0

>  <ATG_HNF6_CIS_up>  (21) 
0.0

>  <ATG_HSE_CIS_dn>  (21) 
0.0

>  <ATG_HSE_CIS_up>  (21) 
0.0

>  <ATG_IR1_CIS_dn>  (21) 
1.0

>  <ATG_IR1_CIS_up>  (21) 
0.0

>  <ATG_ISRE_CIS_dn>  (21) 
0.0

>  <ATG_ISRE_CIS_up>  (21) 
0.0

>  <ATG_LXRb_TRANS_up>  (21) 
0.0

>  <ATG_MRE_CIS_dn>  (21) 
0.0

>  <ATG_MRE_CIS_up>  (21) 
0.0

>  <ATG_M_06_CIS_dn>  (21) 
0.0

>  <ATG_M_06_CIS_up>  (21) 
0.0

>  <ATG_M_06_TRANS_dn>  (21) 
0.0

>  <ATG_M_06_TRANS_up>  (21) 
0.0

>  <ATG_M_19_CIS_dn>  (21) 
0.0

>  <ATG_M_19_CIS_up>  (21) 
0.0

>  <ATG_M_19_TRANS_dn>  (21) 
0.0

>  <ATG_M_19_TRANS_up>  (21) 
0.0

>  <ATG_M_32_CIS_dn>  (21) 
0.0

>  <ATG_M_32_CIS_up>  (21) 
0.0

>  <ATG_M_32_TRANS_dn>  (21) 
0.0

>  <ATG_M_32_TRANS_up>  (21) 
0.0

>  <ATG_M_61_CIS_dn>  (21) 
0.0

>  <ATG_M_61_CIS_up>  (21) 
0.0

>  <ATG_M_61_TRANS_dn>  (21) 
0.0

>  <ATG_M_61_TRANS_up>  (21) 
0.0

>  <ATG_Myb_CIS_dn>  (21) 
1.0

>  <ATG_Myb_CIS_up>  (21) 
0.0

>  <ATG_Myc_CIS_dn>  (21) 
0.0

>  <ATG_Myc_CIS_up>  (21) 
0.0

>  <ATG_NFI_CIS_dn>  (21) 
0.0

>  <ATG_NFI_CIS_up>  (21) 
0.0

>  <ATG_NF_kB_CIS_dn>  (21) 
0.0

>  <ATG_NF_kB_CIS_up>  (21) 
0.0

>  <ATG_NRF1_CIS_dn>  (21) 
0.0

>  <ATG_NRF2_ARE_CIS_dn>  (21) 
0.0

>  <ATG_NRF2_ARE_CIS_up>  (21) 
1.0

>  <ATG_NURR1_TRANS_dn>  (21) 
0.0

>  <ATG_Oct_MLP_CIS_dn>  (21) 
0.0

>  <ATG_Oct_MLP_CIS_up>  (21) 
0.0

>  <ATG_PBREM_CIS_dn>  (21) 
0.0

>  <ATG_PBREM_CIS_up>  (21) 
0.0

>  <ATG_PPARa_TRANS_dn>  (21) 
0.0

>  <ATG_PPARa_TRANS_up>  (21) 
0.0

>  <ATG_PPARd_TRANS_dn>  (21) 
0.0

>  <ATG_PPARd_TRANS_up>  (21) 
0.0

>  <ATG_PPARg_TRANS_dn>  (21) 
0.0

>  <ATG_PPARg_TRANS_up>  (21) 
0.0

>  <ATG_PPRE_CIS_dn>  (21) 
0.0

>  <ATG_PPRE_CIS_up>  (21) 
0.0

>  <ATG_PXRE_CIS_dn>  (21) 
0.0

>  <ATG_PXRE_CIS_up>  (21) 
1.0

>  <ATG_PXR_TRANS_dn>  (21) 
0.0

>  <ATG_PXR_TRANS_up>  (21) 
1.0

>  <ATG_Pax6_CIS_dn>  (21) 
0.0

>  <ATG_Pax6_CIS_up>  (21) 
0.0

>  <ATG_RARa_TRANS_dn>  (21) 
0.0

>  <ATG_RARa_TRANS_up>  (21) 
0.0

>  <ATG_RARb_TRANS_dn>  (21) 
0.0

>  <ATG_RARb_TRANS_up>  (21) 
1.0

>  <ATG_RARg_TRANS_dn>  (21) 
0.0

>  <ATG_RARg_TRANS_up>  (21) 
0.0

>  <ATG_RORE_CIS_dn>  (21) 
0.0

>  <ATG_RORE_CIS_up>  (21) 
0.0

>  <ATG_RORb_TRANS_dn>  (21) 
0.0

>  <ATG_RORb_TRANS_up>  (21) 
0.0

>  <ATG_RORg_TRANS_dn>  (21) 
0.0

>  <ATG_RORg_TRANS_up>  (21) 
0.0

>  <ATG_RXRa_TRANS_dn>  (21) 
0.0

>  <ATG_RXRa_TRANS_up>  (21) 
0.0

>  <ATG_RXRb_TRANS_dn>  (21) 
0.0

>  <ATG_RXRb_TRANS_up>  (21) 
1.0

>  <ATG_SREBP_CIS_dn>  (21) 
1.0

>  <ATG_SREBP_CIS_up>  (21) 
0.0

>  <ATG_STAT3_CIS_dn>  (21) 
0.0

>  <ATG_STAT3_CIS_up>  (21) 
0.0

>  <ATG_Sp1_CIS_dn>  (21) 
0.0

>  <ATG_TAL_CIS_dn>  (21) 
0.0

>  <ATG_TAL_CIS_up>  (21) 
0.0

>  <ATG_TA_CIS_dn>  (21) 
1.0

>  <ATG_TA_CIS_up>  (21) 
0.0

>  <ATG_TCF_b_cat_CIS_dn>  (21) 
1.0

>  <ATG_TCF_b_cat_CIS_up>  (21) 
0.0

>  <ATG_TGFb_CIS_dn>  (21) 
0.0

>  <ATG_THRa1_TRANS_dn>  (21) 
0.0

>  <ATG_THRa1_TRANS_up>  (21) 
0.0

>  <ATG_VDRE_CIS_dn>  (21) 
0.0

>  <ATG_VDRE_CIS_up>  (21) 
0.0

>  <ATG_VDR_TRANS_dn>  (21) 
0.0

>  <ATG_VDR_TRANS_up>  (21) 
0.0

>  <ATG_XTT_Cytotoxicity_up>  (21) 
1.0

>  <ATG_Xbp1_CIS_dn>  (21) 
0.0

>  <ATG_Xbp1_CIS_up>  (21) 
0.0

>  <ATG_p53_CIS_dn>  (21) 
0.0

>  <ATG_p53_CIS_up>  (21) 
0.0

>  <BSK_3C_Eselectin_down>  (21) 
0.0

>  <BSK_3C_Eselectin_up>  (21) 
0.0

>  <BSK_3C_HLADR_up>  (21) 
0.0

>  <BSK_3C_ICAM1_down>  (21) 
0.0

>  <BSK_3C_ICAM1_up>  (21) 
0.0

>  <BSK_3C_IL8_down>  (21) 
0.0

>  <BSK_3C_IL8_up>  (21) 
0.0

>  <BSK_3C_MCP1_down>  (21) 
0.0

>  <BSK_3C_MCP1_up>  (21) 
0.0

>  <BSK_3C_MIG_down>  (21) 
0.0

>  <BSK_3C_MIG_up>  (21) 
0.0

>  <BSK_3C_Proliferation_down>  (21) 
0.0

>  <BSK_3C_Proliferation_up>  (21) 
0.0

>  <BSK_3C_SRB_down>  (21) 
0.0

>  <BSK_3C_SRB_up>  (21) 
0.0

>  <BSK_3C_Thrombomodulin_down>  (21) 
0.0

>  <BSK_3C_Thrombomodulin_up>  (21) 
0.0

>  <BSK_3C_TissueFactor_down>  (21) 
0.0

>  <BSK_3C_TissueFactor_up>  (21) 
0.0

>  <BSK_3C_VCAM1_down>  (21) 
0.0

>  <BSK_3C_VCAM1_up>  (21) 
0.0

>  <BSK_3C_Vis_up>  (21) 
0.0

>  <BSK_3C_uPAR_up>  (21) 
0.0

>  <BSK_4H_Eotaxin3_down>  (21) 
0.0

>  <BSK_4H_Eotaxin3_up>  (21) 
0.0

>  <BSK_4H_MCP1_down>  (21) 
0.0

>  <BSK_4H_MCP1_up>  (21) 
0.0

>  <BSK_4H_Pselectin_down>  (21) 
0.0

>  <BSK_4H_Pselectin_up>  (21) 
0.0

>  <BSK_4H_SRB_down>  (21) 
0.0

>  <BSK_4H_SRB_up>  (21) 
0.0

>  <BSK_4H_VCAM1_down>  (21) 
0.0

>  <BSK_4H_VCAM1_up>  (21) 
0.0

>  <BSK_4H_VEGFRII_down>  (21) 
0.0

>  <BSK_4H_VEGFRII_up>  (21) 
0.0

>  <BSK_4H_uPAR_down>  (21) 
0.0

>  <BSK_4H_uPAR_up>  (21) 
0.0

>  <BSK_BE3C_HLADR_down>  (21) 
0.0

>  <BSK_BE3C_HLADR_up>  (21) 
0.0

>  <BSK_BE3C_IL1a_down>  (21) 
0.0

>  <BSK_BE3C_IL1a_up>  (21) 
0.0

>  <BSK_BE3C_IP10_down>  (21) 
0.0

>  <BSK_BE3C_IP10_up>  (21) 
0.0

>  <BSK_BE3C_MIG_down>  (21) 
0.0

>  <BSK_BE3C_MIG_up>  (21) 
0.0

>  <BSK_BE3C_MMP1_down>  (21) 
0.0

>  <BSK_BE3C_MMP1_up>  (21) 
0.0

>  <BSK_BE3C_PAI1_down>  (21) 
0.0

>  <BSK_BE3C_PAI1_up>  (21) 
0.0

>  <BSK_BE3C_SRB_down>  (21) 
0.0

>  <BSK_BE3C_SRB_up>  (21) 
0.0

>  <BSK_BE3C_TGFb1_down>  (21) 
0.0

>  <BSK_BE3C_TGFb1_up>  (21) 
0.0

>  <BSK_BE3C_tPA_down>  (21) 
0.0

>  <BSK_BE3C_tPA_up>  (21) 
0.0

>  <BSK_BE3C_uPAR_down>  (21) 
0.0

>  <BSK_BE3C_uPAR_up>  (21) 
0.0

>  <BSK_BE3C_uPA_down>  (21) 
0.0

>  <BSK_BE3C_uPA_up>  (21) 
0.0

>  <BSK_CASM3C_HLADR_down>  (21) 
0.0

>  <BSK_CASM3C_HLADR_up>  (21) 
0.0

>  <BSK_CASM3C_IL6_down>  (21) 
0.0

>  <BSK_CASM3C_IL6_up>  (21) 
0.0

>  <BSK_CASM3C_IL8_down>  (21) 
0.0

>  <BSK_CASM3C_IL8_up>  (21) 
0.0

>  <BSK_CASM3C_LDLR_down>  (21) 
0.0

>  <BSK_CASM3C_LDLR_up>  (21) 
0.0

>  <BSK_CASM3C_MCP1_down>  (21) 
0.0

>  <BSK_CASM3C_MCP1_up>  (21) 
0.0

>  <BSK_CASM3C_MCSF_down>  (21) 
0.0

>  <BSK_CASM3C_MCSF_up>  (21) 
0.0

>  <BSK_CASM3C_MIG_down>  (21) 
0.0

>  <BSK_CASM3C_MIG_up>  (21) 
0.0

>  <BSK_CASM3C_Proliferation_down>  (21) 
0.0

>  <BSK_CASM3C_Proliferation_up>  (21) 
0.0

>  <BSK_CASM3C_SAA_down>  (21) 
0.0

>  <BSK_CASM3C_SAA_up>  (21) 
0.0

>  <BSK_CASM3C_SRB_down>  (21) 
0.0

>  <BSK_CASM3C_SRB_up>  (21) 
0.0

>  <BSK_CASM3C_Thrombomodulin_down>  (21) 
0.0

>  <BSK_CASM3C_Thrombomodulin_up>  (21) 
0.0

>  <BSK_CASM3C_TissueFactor_down>  (21) 
0.0

>  <BSK_CASM3C_TissueFactor_up>  (21) 
0.0

>  <BSK_CASM3C_VCAM1_down>  (21) 
0.0

>  <BSK_CASM3C_VCAM1_up>  (21) 
0.0

>  <BSK_CASM3C_uPAR_down>  (21) 
0.0

>  <BSK_CASM3C_uPAR_up>  (21) 
0.0

>  <BSK_KF3CT_ICAM1_down>  (21) 
0.0

>  <BSK_KF3CT_ICAM1_up>  (21) 
0.0

>  <BSK_KF3CT_IL1a_down>  (21) 
0.0

>  <BSK_KF3CT_IL1a_up>  (21) 
0.0

>  <BSK_KF3CT_IP10_down>  (21) 
0.0

>  <BSK_KF3CT_IP10_up>  (21) 
0.0

>  <BSK_KF3CT_MCP1_down>  (21) 
0.0

>  <BSK_KF3CT_MCP1_up>  (21) 
0.0

>  <BSK_KF3CT_MMP9_down>  (21) 
0.0

>  <BSK_KF3CT_MMP9_up>  (21) 
0.0

>  <BSK_KF3CT_SRB_down>  (21) 
0.0

>  <BSK_KF3CT_SRB_up>  (21) 
0.0

>  <BSK_KF3CT_TGFb1_down>  (21) 
0.0

>  <BSK_KF3CT_TGFb1_up>  (21) 
0.0

>  <BSK_KF3CT_TIMP2_down>  (21) 
0.0

>  <BSK_KF3CT_TIMP2_up>  (21) 
0.0

>  <BSK_KF3CT_uPA_down>  (21) 
0.0

>  <BSK_KF3CT_uPA_up>  (21) 
0.0

>  <BSK_LPS_CD40_down>  (21) 
0.0

>  <BSK_LPS_CD40_up>  (21) 
0.0

>  <BSK_LPS_Eselectin_down>  (21) 
0.0

>  <BSK_LPS_Eselectin_up>  (21) 
0.0

>  <BSK_LPS_IL1a_down>  (21) 
0.0

>  <BSK_LPS_IL1a_up>  (21) 
0.0

>  <BSK_LPS_IL8_down>  (21) 
0.0

>  <BSK_LPS_IL8_up>  (21) 
0.0

>  <BSK_LPS_MCP1_down>  (21) 
0.0

>  <BSK_LPS_MCP1_up>  (21) 
0.0

>  <BSK_LPS_MCSF_down>  (21) 
0.0

>  <BSK_LPS_MCSF_up>  (21) 
0.0

>  <BSK_LPS_PGE2_down>  (21) 
0.0

>  <BSK_LPS_PGE2_up>  (21) 
0.0

>  <BSK_LPS_SRB_down>  (21) 
0.0

>  <BSK_LPS_SRB_up>  (21) 
0.0

>  <BSK_LPS_TNFa_down>  (21) 
0.0

>  <BSK_LPS_TNFa_up>  (21) 
0.0

>  <BSK_LPS_TissueFactor_down>  (21) 
0.0

>  <BSK_LPS_TissueFactor_up>  (21) 
0.0

>  <BSK_LPS_VCAM1_down>  (21) 
0.0

>  <BSK_LPS_VCAM1_up>  (21) 
0.0

>  <BSK_SAg_CD38_down>  (21) 
0.0

>  <BSK_SAg_CD38_up>  (21) 
0.0

>  <BSK_SAg_CD40_down>  (21) 
0.0

>  <BSK_SAg_CD40_up>  (21) 
0.0

>  <BSK_SAg_CD69_down>  (21) 
0.0

>  <BSK_SAg_CD69_up>  (21) 
0.0

>  <BSK_SAg_Eselectin_down>  (21) 
0.0

>  <BSK_SAg_Eselectin_up>  (21) 
0.0

>  <BSK_SAg_IL8_down>  (21) 
0.0

>  <BSK_SAg_IL8_up>  (21) 
0.0

>  <BSK_SAg_MCP1_down>  (21) 
0.0

>  <BSK_SAg_MCP1_up>  (21) 
0.0

>  <BSK_SAg_MIG_down>  (21) 
0.0

>  <BSK_SAg_MIG_up>  (21) 
0.0

>  <BSK_SAg_PBMCCytotoxicity_down>  (21) 
0.0

>  <BSK_SAg_PBMCCytotoxicity_up>  (21) 
0.0

>  <BSK_SAg_Proliferation_down>  (21) 
0.0

>  <BSK_SAg_Proliferation_up>  (21) 
0.0

>  <BSK_SAg_SRB_down>  (21) 
0.0

>  <BSK_SAg_SRB_up>  (21) 
0.0

>  <BSK_hDFCGF_CollagenIII_down>  (21) 
0.0

>  <BSK_hDFCGF_CollagenIII_up>  (21) 
0.0

>  <BSK_hDFCGF_EGFR_down>  (21) 
0.0

>  <BSK_hDFCGF_EGFR_up>  (21) 
0.0

>  <BSK_hDFCGF_IL8_down>  (21) 
0.0

>  <BSK_hDFCGF_IL8_up>  (21) 
0.0

>  <BSK_hDFCGF_IP10_down>  (21) 
0.0

>  <BSK_hDFCGF_IP10_up>  (21) 
0.0

>  <BSK_hDFCGF_MCSF_down>  (21) 
0.0

>  <BSK_hDFCGF_MCSF_up>  (21) 
0.0

>  <BSK_hDFCGF_MIG_down>  (21) 
0.0

>  <BSK_hDFCGF_MIG_up>  (21) 
0.0

>  <BSK_hDFCGF_MMP1_down>  (21) 
0.0

>  <BSK_hDFCGF_MMP1_up>  (21) 
0.0

>  <BSK_hDFCGF_PAI1_down>  (21) 
0.0

>  <BSK_hDFCGF_PAI1_up>  (21) 
0.0

>  <BSK_hDFCGF_Proliferation_down>  (21) 
0.0

>  <BSK_hDFCGF_Proliferation_up>  (21) 
0.0

>  <BSK_hDFCGF_SRB_down>  (21) 
0.0

>  <BSK_hDFCGF_SRB_up>  (21) 
0.0

>  <BSK_hDFCGF_TIMP1_down>  (21) 
0.0

>  <BSK_hDFCGF_TIMP1_up>  (21) 
0.0

>  <BSK_hDFCGF_VCAM1_down>  (21) 
0.0

>  <BSK_hDFCGF_VCAM1_up>  (21) 
0.0

>  <CEETOX_H295R_11DCORT_dn>  (21) 
0.0

>  <CEETOX_H295R_11DCORT_up>  (21) 
0.0

>  <CEETOX_H295R_ANDR_dn>  (21) 
0.0

>  <CEETOX_H295R_ANDR_up>  (21) 
0.0

>  <CEETOX_H295R_CORTIC_dn>  (21) 
0.0

>  <CEETOX_H295R_CORTIC_up>  (21) 
0.0

>  <CEETOX_H295R_CORTISOL_dn>  (21) 
0.0

>  <CEETOX_H295R_CORTISOL_up>  (21) 
0.0

>  <CEETOX_H295R_DOC_dn>  (21) 
1.0

>  <CEETOX_H295R_DOC_up>  (21) 
0.0

>  <CEETOX_H295R_ESTRADIOL_dn>  (21) 
0.0

>  <CEETOX_H295R_ESTRADIOL_up>  (21) 
0.0

>  <CEETOX_H295R_ESTRONE_dn>  (21) 
0.0

>  <CEETOX_H295R_ESTRONE_up>  (21) 
0.0

>  <CEETOX_H295R_MTT_cell_viability_dn>  (21) 
0.0

>  <CEETOX_H295R_MTT_cell_viability_up>  (21) 
0.0

>  <CEETOX_H295R_OHPREG_dn>  (21) 
0.0

>  <CEETOX_H295R_OHPREG_up>  (21) 
0.0

>  <CEETOX_H295R_OHPROG_dn>  (21) 
0.0

>  <CEETOX_H295R_OHPROG_up>  (21) 
1.0

>  <CEETOX_H295R_PROG_dn>  (21) 
0.0

>  <CEETOX_H295R_PROG_up>  (21) 
0.0

>  <CEETOX_H295R_TESTO_dn>  (21) 
0.0

>  <CEETOX_H295R_TESTO_up>  (21) 
0.0

>  <NCCT_HEK293T_CellTiterGLO>  (21) 
1.0

>  <NCCT_QuantiLum_inhib_2_dn>  (21) 
1.0

>  <NCCT_QuantiLum_inhib_dn>  (21) 
1.0

>  <NCCT_TPO_AUR_dn>  (21) 
1.0

>  <NHEERL_ZF_144hpf_TERATOSCORE_up>  (21) 
1.0

>  <NIS_HEK293T_CTG_Cytotoxicity>  (21) 
1.0

>  <NIS_RAIU_inhibition>  (21) 
0.0

>  <NVS_ADME_hCYP1A1>  (21) 
0.0

>  <NVS_ADME_hCYP1A1_Activator>  (21) 
0.0

>  <NVS_ADME_hCYP2A6>  (21) 
0.0

>  <NVS_ADME_hCYP2A6_Activator>  (21) 
0.0

>  <NVS_ADME_hCYP2B6>  (21) 
1.0

>  <NVS_ADME_hCYP2B6_Activator>  (21) 
0.0

>  <NVS_ENZ_hCSF1R>  (21) 
0.0

>  <NVS_ENZ_hCSF1R_Activator>  (21) 
0.0

>  <NVS_ENZ_hGSK3b>  (21) 
0.0

>  <NVS_ENZ_hGSK3b_Activator>  (21) 
0.0

>  <NVS_ENZ_hPDE5>  (21) 
0.0

>  <NVS_ENZ_hPDE5_Activator>  (21) 
0.0

>  <NVS_ENZ_hPTPN9>  (21) 
1.0

>  <NVS_ENZ_hPTPN9_Activator>  (21) 
0.0

>  <NVS_GPCR_gLTB4>  (21) 
1.0

>  <NVS_GPCR_h5HT6>  (21) 
1.0

>  <NVS_GPCR_hM2>  (21) 
0.0

>  <NVS_GPCR_hOpiate_mu>  (21) 
1.0

>  <NVS_GPCR_mCKKBCentral>  (21) 
0.0

>  <NVS_IC_rNaCh_site2>  (21) 
1.0

>  <NVS_MP_hPBR>  (21) 
0.0

>  <NVS_TR_gDAT>  (21) 
1.0

>  <NVS_TR_hDAT>  (21) 
1.0

>  <NVS_TR_hNET>  (21) 
1.0

>  <NVS_TR_rNET>  (21) 
0.0

>  <OT_AR_ARSRC1_0480>  (21) 
1.0

>  <OT_AR_ARSRC1_0960>  (21) 
1.0

>  <OT_ER_ERaERa_0480>  (21) 
1.0

>  <OT_ER_ERaERa_1440>  (21) 
1.0

>  <OT_ER_ERaERb_0480>  (21) 
1.0

>  <OT_ER_ERbERb_0480>  (21) 
1.0

>  <OT_ER_ERbERb_1440>  (21) 
1.0

>  <OT_ERa_EREGFP_0480>  (21) 
1.0

>  <TOX21_AP1_BLA_Agonist_ch1>  (21) 
1.0

>  <TOX21_AP1_BLA_Agonist_ch2>  (21) 
1.0

>  <TOX21_AP1_BLA_Agonist_ratio>  (21) 
1.0

>  <TOX21_AP1_BLA_Agonist_viability>  (21) 
0.0

>  <TOX21_ARE_BLA_Agonist_ch1>  (21) 
0.0

>  <TOX21_ARE_BLA_Agonist_ch2>  (21) 
0.0

>  <TOX21_ARE_BLA_agonist_viability>  (21) 
0.0

>  <TOX21_AR_BLA_Agonist_ch1>  (21) 
0.0

>  <TOX21_AR_BLA_Agonist_ch2>  (21) 
0.0

>  <TOX21_AR_BLA_Agonist_ratio>  (21) 
0.0

>  <TOX21_AR_BLA_Antagonist_ch1>  (21) 
0.0

>  <TOX21_AR_BLA_Antagonist_ch2>  (21) 
0.0

>  <TOX21_AR_BLA_Antagonist_ratio>  (21) 
0.0

>  <TOX21_AR_BLA_Antagonist_viability>  (21) 
1.0

>  <TOX21_AR_LUC_MDAKB2_Agonist>  (21) 
0.0

>  <TOX21_AR_LUC_MDAKB2_Agonist_3uM_Nilutamide>  (21) 
0.0

>  <TOX21_AR_LUC_MDAKB2_Agonist_3uM_Nilutamide_viability>  (21) 
0.0

>  <TOX21_AR_LUC_MDAKB2_Antagonist_0.5nM_R1881>  (21) 
0.0

>  <TOX21_AR_LUC_MDAKB2_Antagonist_0.5nM_R1881_viability>  (21) 
0.0

>  <TOX21_AR_LUC_MDAKB2_Antagonist_10nM_R1881>  (21) 
0.0

>  <TOX21_AR_LUC_MDAKB2_Antagonist_10nM_R1881_viability>  (21) 
0.0

>  <TOX21_AhR_LUC_Agonist>  (21) 
0.0

>  <TOX21_Aromatase_Inhibition>  (21) 
1.0

>  <TOX21_Aromatase_Inhibition_viability>  (21) 
1.0

>  <TOX21_AutoFluor_HEK293_Cell_blue>  (21) 
0.0

>  <TOX21_AutoFluor_HEK293_Cell_green>  (21) 
0.0

>  <TOX21_AutoFluor_HEK293_Cell_red>  (21) 
0.0

>  <TOX21_AutoFluor_HEK293_Media_blue>  (21) 
0.0

>  <TOX21_AutoFluor_HEK293_Media_green>  (21) 
0.0

>  <TOX21_AutoFluor_HEK293_Media_red>  (21) 
0.0

>  <TOX21_AutoFluor_HEPG2_Cell_blue>  (21) 
0.0

>  <TOX21_AutoFluor_HEPG2_Cell_green>  (21) 
0.0

>  <TOX21_AutoFluor_HEPG2_Cell_red>  (21) 
0.0

>  <TOX21_AutoFluor_HEPG2_Media_blue>  (21) 
0.0

>  <TOX21_AutoFluor_HEPG2_Media_green>  (21) 
0.0

>  <TOX21_AutoFluor_HEPG2_Media_red>  (21) 
0.0

>  <TOX21_CAR_Agonist>  (21) 
0.0

>  <TOX21_CAR_Antagonist>  (21) 
0.0

>  <TOX21_CAR_Antagonist_viability>  (21) 
0.0

>  <TOX21_CASP3_CHO>  (21) 
0.0

>  <TOX21_CASP3_CHO_viability>  (21) 
1.0

>  <TOX21_CASP3_HEPG2>  (21) 
0.0

>  <TOX21_CASP3_HEPG2_viability>  (21) 
0.0

>  <TOX21_DT40>  (21) 
1.0

>  <TOX21_DT40_100>  (21) 
1.0

>  <TOX21_DT40_657>  (21) 
1.0

>  <TOX21_ELG1_LUC_Agonist>  (21) 
0.0

>  <TOX21_ELG1_LUC_Agonist_viability>  (21) 
0.0

>  <TOX21_ERR_Agonist>  (21) 
0.0

>  <TOX21_ERR_Antagonist>  (21) 
0.0

>  <TOX21_ERa_BLA_Agonist_ch1>  (21) 
0.0

>  <TOX21_ERa_BLA_Agonist_ch2>  (21) 
1.0

>  <TOX21_ERa_BLA_Agonist_ratio>  (21) 
0.0

>  <TOX21_ERa_BLA_Antagonist_ch1>  (21) 
0.0

>  <TOX21_ERa_BLA_Antagonist_ch2>  (21) 
0.0

>  <TOX21_ERa_BLA_Antagonist_ratio>  (21) 
0.0

>  <TOX21_ERa_BLA_Antagonist_viability>  (21) 
0.0

>  <TOX21_ERa_LUC_VM7_Agonist>  (21) 
1.0

>  <TOX21_ERa_LUC_VM7_Agonist_10nM_ICI182780>  (21) 
0.0

>  <TOX21_ERa_LUC_VM7_Agonist_10nM_ICI182780_viability>  (21) 
0.0

>  <TOX21_ERa_LUC_VM7_Antagonist_0.1nM_E2>  (21) 
0.0

>  <TOX21_ERa_LUC_VM7_Antagonist_0.1nM_E2_viability>  (21) 
0.0

>  <TOX21_ERa_LUC_VM7_Antagonist_0.5nM_E2>  (21) 
0.0

>  <TOX21_ERa_LUC_VM7_Antagonist_0.5nM_E2_viability>  (21) 
0.0

>  <TOX21_ERb_BLA_Agonist_ch1>  (21) 
0.0

>  <TOX21_ERb_BLA_Agonist_ch2>  (21) 
0.0

>  <TOX21_ERb_BLA_Agonist_ratio>  (21) 
0.0

>  <TOX21_ERb_BLA_Agonist_viability>  (21) 
0.0

>  <TOX21_ERb_BLA_Antagonist_ch1>  (21) 
0.0

>  <TOX21_ERb_BLA_Antagonist_ch2>  (21) 
0.0

>  <TOX21_ERb_BLA_Antagonist_ratio>  (21) 
0.0

>  <TOX21_ERb_BLA_Antagonist_viability>  (21) 
0.0

>  <TOX21_ESRE_BLA_ch1>  (21) 
0.0

>  <TOX21_ESRE_BLA_ch2>  (21) 
0.0

>  <TOX21_ESRE_BLA_ratio>  (21) 
0.0

>  <TOX21_ESRE_BLA_viability>  (21) 
0.0

>  <TOX21_FXR_BLA_Antagonist_ch1>  (21) 
0.0

>  <TOX21_FXR_BLA_Antagonist_ch2>  (21) 
0.0

>  <TOX21_FXR_BLA_agonist_ch1>  (21) 
0.0

>  <TOX21_FXR_BLA_agonist_ch2>  (21) 
0.0

>  <TOX21_FXR_BLA_agonist_ratio>  (21) 
0.0

>  <TOX21_FXR_BLA_agonist_viability>  (21) 
0.0

>  <TOX21_FXR_BLA_antagonist_ratio>  (21) 
0.0

>  <TOX21_FXR_BLA_antagonist_viability>  (21) 
0.0

>  <TOX21_GR_BLA_Agonist_ch1>  (21) 
0.0

>  <TOX21_GR_BLA_Agonist_ch2>  (21) 
0.0

>  <TOX21_GR_BLA_Agonist_ratio>  (21) 
0.0

>  <TOX21_GR_BLA_Antagonist_ch1>  (21) 
0.0

>  <TOX21_GR_BLA_Antagonist_ch2>  (21) 
0.0

>  <TOX21_GR_BLA_Antagonist_ratio>  (21) 
0.0

>  <TOX21_GR_BLA_Antagonist_viability>  (21) 
0.0

>  <TOX21_H2AX_HTRF_CHO_Agonist_ch1>  (21) 
0.0

>  <TOX21_H2AX_HTRF_CHO_Agonist_ch2>  (21) 
0.0

>  <TOX21_H2AX_HTRF_CHO_Agonist_ratio>  (21) 
0.0

>  <TOX21_H2AX_HTRF_CHO_viability>  (21) 
1.0

>  <TOX21_HDAC_Inhibition>  (21) 
0.0

>  <TOX21_HDAC_Inhibition_viability>  (21) 
0.0

>  <TOX21_HRE_BLA_Agonist_ch1>  (21) 
0.0

>  <TOX21_HRE_BLA_Agonist_ch2>  (21) 
0.0

>  <TOX21_HRE_BLA_Agonist_ratio>  (21) 
0.0

>  <TOX21_HRE_BLA_Agonist_viability>  (21) 
0.0

>  <TOX21_HSE_BLA_agonist_ch1>  (21) 
0.0

>  <TOX21_HSE_BLA_agonist_ch2>  (21) 
0.0

>  <TOX21_HSE_BLA_agonist_ratio>  (21) 
0.0

>  <TOX21_HSE_BLA_agonist_viability>  (21) 
0.0

>  <TOX21_LUC_Biochem>  (21) 
0.0

>  <TOX21_MMP_fitc>  (21) 
0.0

>  <TOX21_MMP_ratio_down>  (21) 
1.0

>  <TOX21_MMP_ratio_up>  (21) 
0.0

>  <TOX21_MMP_rhodamine>  (21) 
1.0

>  <TOX21_MMP_viability>  (21) 
0.0

>  <TOX21_NFkB_BLA_agonist_ch1>  (21) 
1.0

>  <TOX21_NFkB_BLA_agonist_ch2>  (21) 
0.0

>  <TOX21_NFkB_BLA_agonist_ratio>  (21) 
0.0

>  <TOX21_NFkB_BLA_agonist_viability>  (21) 
0.0

>  <TOX21_PGC_ERR_Agonist>  (21) 
0.0

>  <TOX21_PGC_ERR_Antagonist>  (21) 
0.0

>  <TOX21_PGC_ERR_viability>  (21) 
0.0

>  <TOX21_PPARd_BLA_Agonist_viability>  (21) 
0.0

>  <TOX21_PPARd_BLA_Antagonist_ch1>  (21) 
0.0

>  <TOX21_PPARd_BLA_Antagonist_ch2>  (21) 
0.0

>  <TOX21_PPARd_BLA_agonist_ch1>  (21) 
0.0

>  <TOX21_PPARd_BLA_agonist_ch2>  (21) 
0.0

>  <TOX21_PPARd_BLA_agonist_ratio>  (21) 
0.0

>  <TOX21_PPARd_BLA_antagonist_ratio>  (21) 
0.0

>  <TOX21_PPARd_BLA_antagonist_viability>  (21) 
0.0

>  <TOX21_PPARg_BLA_Agonist_ch1>  (21) 
0.0

>  <TOX21_PPARg_BLA_Agonist_ch2>  (21) 
0.0

>  <TOX21_PPARg_BLA_Agonist_ratio>  (21) 
0.0

>  <TOX21_PPARg_BLA_Antagonist_ch1>  (21) 
0.0

>  <TOX21_PPARg_BLA_Antagonist_ch2>  (21) 
0.0

>  <TOX21_PPARg_BLA_antagonist_ratio>  (21) 
0.0

>  <TOX21_PPARg_BLA_antagonist_viability>  (21) 
0.0

>  <TOX21_PR_BLA_Agonist_ch1>  (21) 
0.0

>  <TOX21_PR_BLA_Agonist_ch2>  (21) 
0.0

>  <TOX21_PR_BLA_Agonist_ratio>  (21) 
0.0

>  <TOX21_PR_BLA_Antagonist_ch1>  (21) 
0.0

>  <TOX21_PR_BLA_Antagonist_ch2>  (21) 
0.0

>  <TOX21_PR_BLA_Antagonist_ratio>  (21) 
1.0

>  <TOX21_PR_BLA_Antagonist_viability>  (21) 
0.0

>  <TOX21_PXR_Agonist>  (21) 
0.0

>  <TOX21_PXR_viability>  (21) 
0.0

>  <TOX21_RAR_LUC_Agonist>  (21) 
0.0

>  <TOX21_RAR_LUC_Agonist_viability>  (21) 
0.0

>  <TOX21_RAR_LUC_Antagonist_viability>  (21) 
0.0

>  <TOX21_RORg_LUC_CHO_Antagonist>  (21) 
0.0

>  <TOX21_RORg_LUC_CHO_Antagonist_viability>  (21) 
0.0

>  <TOX21_RT_HEK293_FLO_00hr_viability>  (21) 
0.0

>  <TOX21_RT_HEK293_FLO_08hr_viability>  (21) 
1.0

>  <TOX21_RT_HEK293_FLO_16hr_viability>  (21) 
1.0

>  <TOX21_RT_HEK293_FLO_24hr_viability>  (21) 
1.0

>  <TOX21_RT_HEK293_FLO_32hr_viability>  (21) 
1.0

>  <TOX21_RT_HEK293_FLO_40hr_viability>  (21) 
1.0

>  <TOX21_RT_HEK293_GLO_00hr_viability>  (21) 
0.0

>  <TOX21_RT_HEK293_GLO_08hr_viability>  (21) 
0.0

>  <TOX21_RT_HEK293_GLO_16hr_viability>  (21) 
0.0

>  <TOX21_RT_HEK293_GLO_24hr_viability>  (21) 
0.0

>  <TOX21_RT_HEK293_GLO_32hr_viability>  (21) 
0.0

>  <TOX21_RT_HEK293_GLO_40hr_viability>  (21) 
0.0

>  <TOX21_RT_HEPG2_FLO_00hr_ctrl_viability>  (21) 
0.0

>  <TOX21_RT_HEPG2_FLO_08hr_viability>  (21) 
0.0

>  <TOX21_RT_HEPG2_FLO_16hr_ctrl_viability>  (21) 
1.0

>  <TOX21_RT_HEPG2_FLO_24hr_viability>  (21) 
1.0

>  <TOX21_RT_HEPG2_FLO_32hr_ctrl_viability>  (21) 
1.0

>  <TOX21_RT_HEPG2_GLO_00hr_ctrl_viability>  (21) 
0.0

>  <TOX21_RT_HEPG2_GLO_08hr_ctrl_viability>  (21) 
1.0

>  <TOX21_RT_HEPG2_GLO_16hr_ctrl_viability>  (21) 
1.0

>  <TOX21_RT_HEPG2_GLO_24hr_ctrl_viability>  (21) 
0.0

>  <TOX21_RT_HEPG2_GLO_32hr_ctrl_viability>  (21) 
0.0

>  <TOX21_RT_HEPG2_GLO_40hr_viability>  (21) 
0.0

>  <TOX21_RXR_BLA_Agonist_ch1>  (21) 
0.0

>  <TOX21_RXR_BLA_Agonist_ch2>  (21) 
1.0

>  <TOX21_RXR_BLA_Agonist_ratio>  (21) 
1.0

>  <TOX21_RXR_BLA_Agonist_viability>  (21) 
1.0

>  <TOX21_SBE_BLA_Agonist_ch1>  (21) 
0.0

>  <TOX21_SBE_BLA_Agonist_ch2>  (21) 
0.0

>  <TOX21_SBE_BLA_Agonist_ratio>  (21) 
0.0

>  <TOX21_SBE_BLA_Agonist_viability>  (21) 
0.0

>  <TOX21_SBE_BLA_Antagonist_ch1>  (21) 
0.0

>  <TOX21_SBE_BLA_Antagonist_ch2>  (21) 
0.0

>  <TOX21_SBE_BLA_Antagonist_ratio>  (21) 
1.0

>  <TOX21_SBE_BLA_Antagonist_viability>  (21) 
0.0

>  <TOX21_SSH_3T3_GLI3_Agonist>  (21) 
0.0

>  <TOX21_SSH_3T3_GLI3_Agonist_viability>  (21) 
0.0

>  <TOX21_SSH_3T3_GLI3_Antagonist>  (21) 
0.0

>  <TOX21_SSH_3T3_GLI3_Antagonist_viability>  (21) 
0.0

>  <TOX21_TRHR_HEK293_Agonist>  (21) 
0.0

>  <TOX21_TRHR_HEK293_Antagonist>  (21) 
0.0

>  <TOX21_TR_LUC_GH3_Agonist>  (21) 
0.0

>  <TOX21_TR_LUC_GH3_Antagonist>  (21) 
1.0

>  <TOX21_TR_LUC_GH3_Antagonist_viability>  (21) 
0.0

>  <TOX21_TSHR_Agonist_ch2>  (21) 
0.0

>  <TOX21_TSHR_Antagonist_ch2>  (21) 
0.0

>  <TOX21_TSHR_Antagonist_ratio>  (21) 
0.0

>  <TOX21_TSHR_HTRF_Agonist_ch1>  (21) 
0.0

>  <TOX21_TSHR_HTRF_Antagonist_ch1>  (21) 
0.0

>  <TOX21_TSHR_wt_HTRF_ch1>  (21) 
0.0

>  <TOX21_TSHR_wt_ch2>  (21) 
0.0

>  <TOX21_TSHR_wt_ratio>  (21) 
0.0

>  <TOX21_VDR_BLA_Agonist_viability>  (21) 
1.0

>  <TOX21_VDR_BLA_Antagonist_ch1>  (21) 
0.0

>  <TOX21_VDR_BLA_Antagonist_ch2>  (21) 
0.0

>  <TOX21_VDR_BLA_agonist_ch1>  (21) 
0.0

>  <TOX21_VDR_BLA_agonist_ch2>  (21) 
0.0

>  <TOX21_VDR_BLA_agonist_ratio>  (21) 
0.0

>  <TOX21_VDR_BLA_antagonist_ratio>  (21) 
0.0

>  <TOX21_VDR_BLA_antagonist_viability>  (21) 
0.0

>  <TOX21_p53_BLA_p1_ch1>  (21) 
0.0

>  <TOX21_p53_BLA_p1_ch2>  (21) 
0.0

>  <TOX21_p53_BLA_p1_ratio>  (21) 
0.0

>  <TOX21_p53_BLA_p1_viability>  (21) 
0.0

>  <TOX21_p53_BLA_p2_ch1>  (21) 
0.0

>  <TOX21_p53_BLA_p2_ch2>  (21) 
0.0

>  <TOX21_p53_BLA_p2_ratio>  (21) 
0.0

>  <TOX21_p53_BLA_p2_viability>  (21) 
0.0

>  <TOX21_p53_BLA_p3_ch1>  (21) 
0.0

>  <TOX21_p53_BLA_p3_ch2>  (21) 
0.0

>  <TOX21_p53_BLA_p3_ratio>  (21) 
0.0

>  <TOX21_p53_BLA_p4_ch1>  (21) 
0.0

>  <TOX21_p53_BLA_p4_ch2>  (21) 
0.0

>  <TOX21_p53_BLA_p4_ratio>  (21) 
0.0

>  <TOX21_p53_BLA_p4_viability>  (21) 
0.0

>  <TOX21_p53_BLA_p5_ch1>  (21) 
0.0

>  <TOX21_p53_BLA_p5_ch2>  (21) 
0.0

>  <TOX21_p53_BLA_p5_ratio>  (21) 
0.0

>  <TOX21_p53_BLA_p5_viability>  (21) 
0.0

>  <Tanguay_ZF_120hpf_AXIS_up>  (21) 
1.0

>  <Tanguay_ZF_120hpf_ActivityScore>  (21) 
1.0

>  <Tanguay_ZF_120hpf_BRAI_up>  (21) 
1.0

>  <Tanguay_ZF_120hpf_CFIN_up>  (21) 
1.0

>  <Tanguay_ZF_120hpf_CIRC_up>  (21) 
0.0

>  <Tanguay_ZF_120hpf_EYE_up>  (21) 
1.0

>  <Tanguay_ZF_120hpf_JAW_up>  (21) 
1.0

>  <Tanguay_ZF_120hpf_MORT_up>  (21) 
1.0

>  <Tanguay_ZF_120hpf_NC_up>  (21) 
1.0

>  <Tanguay_ZF_120hpf_OTIC_up>  (21) 
1.0

>  <Tanguay_ZF_120hpf_PE_up>  (21) 
1.0

>  <Tanguay_ZF_120hpf_PFIN_up>  (21) 
1.0

>  <Tanguay_ZF_120hpf_PIG_up>  (21) 
1.0

>  <Tanguay_ZF_120hpf_SNOU_up>  (21) 
1.0

>  <Tanguay_ZF_120hpf_SOMI_up>  (21) 
1.0

>  <Tanguay_ZF_120hpf_SWIM_up>  (21) 
1.0

>  <Tanguay_ZF_120hpf_TRUN_up>  (21) 
1.0

>  <Tanguay_ZF_120hpf_TR_up>  (21) 
1.0

>  <Tanguay_ZF_120hpf_YSE_up>  (21) 
1.0

>  <UPITT_HCI_U2OS_AR_TIF2_Nucleoli_Agonist>  (21) 
1.0

>  <UPITT_HCI_U2OS_AR_TIF2_Nucleoli_Antagonist>  (21) 
1.0

>  <UPITT_HCI_U2OS_AR_TIF2_Nucleoli_Cytoplasm_Ratio_Agonist>  (21) 
0.0

>  <UPITT_HCI_U2OS_AR_TIF2_Nucleoli_Cytoplasm_Ratio_Antagonist>  (21) 
1.0

>  <NVS_NR_mERa>  (21) 
1

$$$$

     RDKit          3D

 16 17  0  0  0  0  0  0  0  0999 V2000
    0.0000    0.0000    0.0000 C   0  0  0  0  0  0  0  0  0  0  0  0
    0.0000    0.0000    0.0000 C   0  0  0  0  0  0  0  0  0  0  0  0
    0.0000    0.0000    0.0000 C   0  0  0  0  0  0  0  0  0  0  0  0
    0.0000    0.0000    0.0000 C   0  0  0  0  0  0  0  0  0  0  0  0
    0.0000    0.0000    0.0000 C   0  0  0  0  0  0  0  0  0  0  0  0
    0.0000    0.0000    0.0000 C   0  0  0  0  0  0  0  0  0  0  0  0
    0.0000    0.0000    0.0000 C   0  0  0  0  0  0  0  0  0  0  0  0
    0.0000    0.0000    0.0000 O   0  0  0  0  0  0  0  0  0  0  0  0
    0.0000    0.0000    0.0000 C   0  0  0  0  0  0  0  0  0  0  0  0
    0.0000    0.0000    0.0000 C   0  0  0  0  0  0  0  0  0  0  0  0
    0.0000    0.0000    0.0000 C   0  0  0  0  0  0  0  0  0  0  0  0
    0.0000    0.0000    0.0000 C   0  0  0  0  0  0  0  0  0  0  0  0
    0.0000    0.0000    0.0000 C   0  0  0  0  0  0  0  0  0  0  0  0
    0.0000    0.0000    0.0000 C   0  0  0  0  0  0  0  0  0  0  0  0
    0.0000    0.0000    0.0000 O   0  0  0  0  0  0  0  0  0  0  0  0
    0.0000    0.0000    0.0000 O   0  0  0  0  0  0  0  0  0  0  0  0
  1  2  2  0
  2  3  1  0
  3  4  2  0
  4  5  1  0
  5  6  2  0
  4  7  1  0
  7  8  2  0
  7  9  1  0
  9 10  2  0
 10 11  1  0
 11 12  2  0
 12 13  1  0
 13 14  2  0
 12 15  1  0
 10 16  1  0
  6  1  1  0
 14  9  1  0
M  END
>  <CASRN>  (22) 
131-56-6

>  <Name>  (22) 
2,4-Dihydroxybenzophenone

>  <Active>  (22) 
3

>  <Inactive>  (22) 
0

>  <Bioactivity>  (22) 
Active

>  <Min LEL>  (22) 
100.0

>  <Max HDT>  (22) 
nan

>  <Class>  (22) 
1

>  <Code>  (22) 
C131566

>  <NVS_NR_hER>  (22) 
1.0

>  <NVS_NR_cAR>  (22) 
1.0

>  <NVS_NR_hAR>  (22) 
1.0

>  <NVS_NR_rAR>  (22) 
0.0

>  <OT_ER_ERaERb_1440>  (22) 
1.0

>  <OT_FXR_FXRSRC1_0480>  (22) 
0.0

>  <OT_PPARg_PPARgSRC1_1440>  (22) 
0.0

>  <OT_FXR_FXRSRC1_1440>  (22) 
0.0

>  <OT_NURR1_NURR1RXRa_0480>  (22) 
0.0

>  <OT_NURR1_NURR1RXRa_1440>  (22) 
0.0

>  <OT_PPARg_PPARgSRC1_0480>  (22) 
0.0

>  <OT_AR_ARELUC_AG_1440>  (22) 
0.0

>  <OT_ERa_EREGFP_0120>  (22) 
1.0

>  <BSK_3C_HLADR_down>  (22) 
0.0

>  <BSK_3C_Vis_down>  (22) 
0.0

>  <BSK_3C_uPAR_down>  (22) 
0.0

>  <ATG_CAR_TRANS_up>  (22) 
0.0

>  <ATG_E2F_CIS_dn>  (22) 
0.0

>  <ATG_EGR_CIS_up>  (22) 
0.0

>  <ATG_ERa_TRANS_dn>  (22) 
0.0

>  <ATG_ERa_TRANS_up>  (22) 
1.0

>  <ATG_FXR_TRANS_dn>  (22) 
0.0

>  <ATG_GLI_CIS_dn>  (22) 
0.0

>  <ATG_GRE_CIS_up>  (22) 
0.0

>  <ATG_LXRa_TRANS_dn>  (22) 
0.0

>  <ATG_LXRa_TRANS_up>  (22) 
0.0

>  <ATG_NRF1_CIS_up>  (22) 
0.0

>  <ATG_NURR1_TRANS_up>  (22) 
0.0

>  <ATG_Sox_CIS_dn>  (22) 
0.0

>  <ATG_Sox_CIS_up>  (22) 
0.0

>  <ATG_Sp1_CIS_up>  (22) 
0.0

>  <ATG_TGFb_CIS_up>  (22) 
0.0

>  <TOX21_ARE_BLA_agonist_ratio>  (22) 
1.0

>  <TOX21_RAR_LUC_Antagonist>  (22) 
0.0

>  <ATG_LXRb_TRANS_dn>  (22) 
0.0

>  <ATG_CAR_TRANS_dn>  (22) 
0.0

>  <ATG_BRE_CIS_dn>  (22) 
0.0

>  <ATG_E2F_CIS_up>  (22) 
0.0

>  <TOX21_TSHR_Agonist_ratio>  (22) 
0.0

>  <ACEA_ER_80hr>  (22) 
1.0

>  <TOX21_CAR_Agonist_viabillity>  (22) 
0.0

>  <TOX21_PR_BLA_Agonist_viability>  (22) 
1.0

>  <TOX21_RT_HEPG2_FLO_40hr_ctrl_viability>  (22) 
1.0

>  <TOX21_AhR_LUC_Agonist_viability>  (22) 
0.0

>  <TOX21_ERR_viability>  (22) 
0.0

>  <TOX21_p53_BLA_p3_viability>  (22) 
0.0

>  <NVS_NR_hPR>  (22) 
1.0

>  <NVS_NR_hGR>  (22) 
1.0

>  <NVS_NR_bER>  (22) 
1.0

>  <ACEA_AR_agonist_80hr>  (22) 
0.0

>  <ACEA_AR_agonist_AUC_viability>  (22) 
1.0

>  <ACEA_AR_antagonist_80hr>  (22) 
1.0

>  <ACEA_AR_antagonist_AUC_viability>  (22) 
0.0

>  <ACEA_ER_AUC_viability>  (22) 
0.0

>  <ATG_AP_1_CIS_dn>  (22) 
0.0

>  <ATG_AP_1_CIS_up>  (22) 
1.0

>  <ATG_AP_2_CIS_dn>  (22) 
0.0

>  <ATG_AP_2_CIS_up>  (22) 
0.0

>  <ATG_AR_TRANS_dn>  (22) 
0.0

>  <ATG_AR_TRANS_up>  (22) 
0.0

>  <ATG_Ahr_CIS_dn>  (22) 
1.0

>  <ATG_Ahr_CIS_up>  (22) 
0.0

>  <ATG_BRE_CIS_up>  (22) 
1.0

>  <ATG_CMV_CIS_dn>  (22) 
0.0

>  <ATG_CMV_CIS_up>  (22) 
1.0

>  <ATG_CRE_CIS_dn>  (22) 
0.0

>  <ATG_CRE_CIS_up>  (22) 
0.0

>  <ATG_C_EBP_CIS_dn>  (22) 
0.0

>  <ATG_C_EBP_CIS_up>  (22) 
0.0

>  <ATG_DR4_LXR_CIS_dn>  (22) 
0.0

>  <ATG_DR4_LXR_CIS_up>  (22) 
0.0

>  <ATG_DR5_CIS_dn>  (22) 
0.0

>  <ATG_DR5_CIS_up>  (22) 
0.0

>  <ATG_EGR_CIS_dn>  (22) 
0.0

>  <ATG_ERE_CIS_dn>  (22) 
0.0

>  <ATG_ERE_CIS_up>  (22) 
1.0

>  <ATG_ERRa_TRANS_dn>  (22) 
0.0

>  <ATG_ERRa_TRANS_up>  (22) 
0.0

>  <ATG_ERRg_TRANS_dn>  (22) 
0.0

>  <ATG_ERRg_TRANS_up>  (22) 
0.0

>  <ATG_E_Box_CIS_dn>  (22) 
0.0

>  <ATG_E_Box_CIS_up>  (22) 
0.0

>  <ATG_Ets_CIS_dn>  (22) 
0.0

>  <ATG_Ets_CIS_up>  (22) 
0.0

>  <ATG_FXR_TRANS_up>  (22) 
0.0

>  <ATG_FoxA2_CIS_dn>  (22) 
1.0

>  <ATG_FoxA2_CIS_up>  (22) 
0.0

>  <ATG_FoxO_CIS_dn>  (22) 
0.0

>  <ATG_FoxO_CIS_up>  (22) 
0.0

>  <ATG_GAL4_TRANS_dn>  (22) 
0.0

>  <ATG_GAL4_TRANS_up>  (22) 
0.0

>  <ATG_GATA_CIS_dn>  (22) 
0.0

>  <ATG_GATA_CIS_up>  (22) 
0.0

>  <ATG_GLI_CIS_up>  (22) 
0.0

>  <ATG_GRE_CIS_dn>  (22) 
0.0

>  <ATG_GR_TRANS_dn>  (22) 
0.0

>  <ATG_GR_TRANS_up>  (22) 
0.0

>  <ATG_HIF1a_CIS_dn>  (22) 
0.0

>  <ATG_HIF1a_CIS_up>  (22) 
0.0

>  <ATG_HNF4a_TRANS_dn>  (22) 
0.0

>  <ATG_HNF4a_TRANS_up>  (22) 
0.0

>  <ATG_HNF6_CIS_dn>  (22) 
0.0

>  <ATG_HNF6_CIS_up>  (22) 
0.0

>  <ATG_HSE_CIS_dn>  (22) 
0.0

>  <ATG_HSE_CIS_up>  (22) 
0.0

>  <ATG_IR1_CIS_dn>  (22) 
0.0

>  <ATG_IR1_CIS_up>  (22) 
0.0

>  <ATG_ISRE_CIS_dn>  (22) 
0.0

>  <ATG_ISRE_CIS_up>  (22) 
0.0

>  <ATG_LXRb_TRANS_up>  (22) 
0.0

>  <ATG_MRE_CIS_dn>  (22) 
1.0

>  <ATG_MRE_CIS_up>  (22) 
0.0

>  <ATG_M_06_CIS_dn>  (22) 
0.0

>  <ATG_M_06_CIS_up>  (22) 
0.0

>  <ATG_M_06_TRANS_dn>  (22) 
0.0

>  <ATG_M_06_TRANS_up>  (22) 
0.0

>  <ATG_M_19_CIS_dn>  (22) 
0.0

>  <ATG_M_19_CIS_up>  (22) 
0.0

>  <ATG_M_19_TRANS_dn>  (22) 
0.0

>  <ATG_M_19_TRANS_up>  (22) 
0.0

>  <ATG_M_32_CIS_dn>  (22) 
0.0

>  <ATG_M_32_CIS_up>  (22) 
0.0

>  <ATG_M_32_TRANS_dn>  (22) 
0.0

>  <ATG_M_32_TRANS_up>  (22) 
0.0

>  <ATG_M_61_CIS_dn>  (22) 
0.0

>  <ATG_M_61_CIS_up>  (22) 
0.0

>  <ATG_M_61_TRANS_dn>  (22) 
0.0

>  <ATG_M_61_TRANS_up>  (22) 
0.0

>  <ATG_Myb_CIS_dn>  (22) 
0.0

>  <ATG_Myb_CIS_up>  (22) 
0.0

>  <ATG_Myc_CIS_dn>  (22) 
0.0

>  <ATG_Myc_CIS_up>  (22) 
0.0

>  <ATG_NFI_CIS_dn>  (22) 
0.0

>  <ATG_NFI_CIS_up>  (22) 
0.0

>  <ATG_NF_kB_CIS_dn>  (22) 
0.0

>  <ATG_NF_kB_CIS_up>  (22) 
0.0

>  <ATG_NRF1_CIS_dn>  (22) 
0.0

>  <ATG_NRF2_ARE_CIS_dn>  (22) 
0.0

>  <ATG_NRF2_ARE_CIS_up>  (22) 
1.0

>  <ATG_NURR1_TRANS_dn>  (22) 
0.0

>  <ATG_Oct_MLP_CIS_dn>  (22) 
0.0

>  <ATG_Oct_MLP_CIS_up>  (22) 
0.0

>  <ATG_PBREM_CIS_dn>  (22) 
0.0

>  <ATG_PBREM_CIS_up>  (22) 
0.0

>  <ATG_PPARa_TRANS_dn>  (22) 
0.0

>  <ATG_PPARa_TRANS_up>  (22) 
1.0

>  <ATG_PPARd_TRANS_dn>  (22) 
0.0

>  <ATG_PPARd_TRANS_up>  (22) 
0.0

>  <ATG_PPARg_TRANS_dn>  (22) 
0.0

>  <ATG_PPARg_TRANS_up>  (22) 
1.0

>  <ATG_PPRE_CIS_dn>  (22) 
0.0

>  <ATG_PPRE_CIS_up>  (22) 
0.0

>  <ATG_PXRE_CIS_dn>  (22) 
0.0

>  <ATG_PXRE_CIS_up>  (22) 
1.0

>  <ATG_PXR_TRANS_dn>  (22) 
0.0

>  <ATG_PXR_TRANS_up>  (22) 
1.0

>  <ATG_Pax6_CIS_dn>  (22) 
0.0

>  <ATG_Pax6_CIS_up>  (22) 
0.0

>  <ATG_RARa_TRANS_dn>  (22) 
0.0

>  <ATG_RARa_TRANS_up>  (22) 
0.0

>  <ATG_RARb_TRANS_dn>  (22) 
0.0

>  <ATG_RARb_TRANS_up>  (22) 
1.0

>  <ATG_RARg_TRANS_dn>  (22) 
0.0

>  <ATG_RARg_TRANS_up>  (22) 
0.0

>  <ATG_RORE_CIS_dn>  (22) 
0.0

>  <ATG_RORE_CIS_up>  (22) 
0.0

>  <ATG_RORb_TRANS_dn>  (22) 
0.0

>  <ATG_RORb_TRANS_up>  (22) 
0.0

>  <ATG_RORg_TRANS_dn>  (22) 
0.0

>  <ATG_RORg_TRANS_up>  (22) 
0.0

>  <ATG_RXRa_TRANS_dn>  (22) 
0.0

>  <ATG_RXRa_TRANS_up>  (22) 
0.0

>  <ATG_RXRb_TRANS_dn>  (22) 
0.0

>  <ATG_RXRb_TRANS_up>  (22) 
1.0

>  <ATG_SREBP_CIS_dn>  (22) 
0.0

>  <ATG_SREBP_CIS_up>  (22) 
0.0

>  <ATG_STAT3_CIS_dn>  (22) 
1.0

>  <ATG_STAT3_CIS_up>  (22) 
0.0

>  <ATG_Sp1_CIS_dn>  (22) 
0.0

>  <ATG_TAL_CIS_dn>  (22) 
0.0

>  <ATG_TAL_CIS_up>  (22) 
0.0

>  <ATG_TA_CIS_dn>  (22) 
0.0

>  <ATG_TA_CIS_up>  (22) 
0.0

>  <ATG_TCF_b_cat_CIS_dn>  (22) 
0.0

>  <ATG_TCF_b_cat_CIS_up>  (22) 
0.0

>  <ATG_TGFb_CIS_dn>  (22) 
0.0

>  <ATG_THRa1_TRANS_dn>  (22) 
0.0

>  <ATG_THRa1_TRANS_up>  (22) 
0.0

>  <ATG_VDRE_CIS_dn>  (22) 
0.0

>  <ATG_VDRE_CIS_up>  (22) 
0.0

>  <ATG_VDR_TRANS_dn>  (22) 
0.0

>  <ATG_VDR_TRANS_up>  (22) 
0.0

>  <ATG_XTT_Cytotoxicity_up>  (22) 
0.0

>  <ATG_Xbp1_CIS_dn>  (22) 
0.0

>  <ATG_Xbp1_CIS_up>  (22) 
0.0

>  <ATG_p53_CIS_dn>  (22) 
0.0

>  <ATG_p53_CIS_up>  (22) 
0.0

>  <BSK_3C_Eselectin_down>  (22) 
0.0

>  <BSK_3C_Eselectin_up>  (22) 
0.0

>  <BSK_3C_HLADR_up>  (22) 
0.0

>  <BSK_3C_ICAM1_down>  (22) 
0.0

>  <BSK_3C_ICAM1_up>  (22) 
0.0

>  <BSK_3C_IL8_down>  (22) 
0.0

>  <BSK_3C_IL8_up>  (22) 
0.0

>  <BSK_3C_MCP1_down>  (22) 
0.0

>  <BSK_3C_MCP1_up>  (22) 
0.0

>  <BSK_3C_MIG_down>  (22) 
0.0

>  <BSK_3C_MIG_up>  (22) 
0.0

>  <BSK_3C_Proliferation_down>  (22) 
0.0

>  <BSK_3C_Proliferation_up>  (22) 
0.0

>  <BSK_3C_SRB_down>  (22) 
0.0

>  <BSK_3C_SRB_up>  (22) 
0.0

>  <BSK_3C_Thrombomodulin_down>  (22) 
0.0

>  <BSK_3C_Thrombomodulin_up>  (22) 
0.0

>  <BSK_3C_TissueFactor_down>  (22) 
0.0

>  <BSK_3C_TissueFactor_up>  (22) 
0.0

>  <BSK_3C_VCAM1_down>  (22) 
0.0

>  <BSK_3C_VCAM1_up>  (22) 
0.0

>  <BSK_3C_Vis_up>  (22) 
0.0

>  <BSK_3C_uPAR_up>  (22) 
0.0

>  <BSK_4H_Eotaxin3_down>  (22) 
0.0

>  <BSK_4H_Eotaxin3_up>  (22) 
0.0

>  <BSK_4H_MCP1_down>  (22) 
0.0

>  <BSK_4H_MCP1_up>  (22) 
0.0

>  <BSK_4H_Pselectin_down>  (22) 
0.0

>  <BSK_4H_Pselectin_up>  (22) 
0.0

>  <BSK_4H_SRB_down>  (22) 
0.0

>  <BSK_4H_SRB_up>  (22) 
0.0

>  <BSK_4H_VCAM1_down>  (22) 
0.0

>  <BSK_4H_VCAM1_up>  (22) 
0.0

>  <BSK_4H_VEGFRII_down>  (22) 
0.0

>  <BSK_4H_VEGFRII_up>  (22) 
0.0

>  <BSK_4H_uPAR_down>  (22) 
0.0

>  <BSK_4H_uPAR_up>  (22) 
0.0

>  <BSK_BE3C_HLADR_down>  (22) 
0.0

>  <BSK_BE3C_HLADR_up>  (22) 
0.0

>  <BSK_BE3C_IL1a_down>  (22) 
0.0

>  <BSK_BE3C_IL1a_up>  (22) 
0.0

>  <BSK_BE3C_IP10_down>  (22) 
0.0

>  <BSK_BE3C_IP10_up>  (22) 
0.0

>  <BSK_BE3C_MIG_down>  (22) 
0.0

>  <BSK_BE3C_MIG_up>  (22) 
0.0

>  <BSK_BE3C_MMP1_down>  (22) 
0.0

>  <BSK_BE3C_MMP1_up>  (22) 
0.0

>  <BSK_BE3C_PAI1_down>  (22) 
0.0

>  <BSK_BE3C_PAI1_up>  (22) 
0.0

>  <BSK_BE3C_SRB_down>  (22) 
0.0

>  <BSK_BE3C_SRB_up>  (22) 
0.0

>  <BSK_BE3C_TGFb1_down>  (22) 
0.0

>  <BSK_BE3C_TGFb1_up>  (22) 
0.0

>  <BSK_BE3C_tPA_down>  (22) 
0.0

>  <BSK_BE3C_tPA_up>  (22) 
0.0

>  <BSK_BE3C_uPAR_down>  (22) 
0.0

>  <BSK_BE3C_uPAR_up>  (22) 
0.0

>  <BSK_BE3C_uPA_down>  (22) 
0.0

>  <BSK_BE3C_uPA_up>  (22) 
0.0

>  <BSK_CASM3C_HLADR_down>  (22) 
0.0

>  <BSK_CASM3C_HLADR_up>  (22) 
0.0

>  <BSK_CASM3C_IL6_down>  (22) 
0.0

>  <BSK_CASM3C_IL6_up>  (22) 
0.0

>  <BSK_CASM3C_IL8_down>  (22) 
0.0

>  <BSK_CASM3C_IL8_up>  (22) 
0.0

>  <BSK_CASM3C_LDLR_down>  (22) 
0.0

>  <BSK_CASM3C_LDLR_up>  (22) 
0.0

>  <BSK_CASM3C_MCP1_down>  (22) 
0.0

>  <BSK_CASM3C_MCP1_up>  (22) 
0.0

>  <BSK_CASM3C_MCSF_down>  (22) 
0.0

>  <BSK_CASM3C_MCSF_up>  (22) 
0.0

>  <BSK_CASM3C_MIG_down>  (22) 
0.0

>  <BSK_CASM3C_MIG_up>  (22) 
0.0

>  <BSK_CASM3C_Proliferation_down>  (22) 
0.0

>  <BSK_CASM3C_Proliferation_up>  (22) 
0.0

>  <BSK_CASM3C_SAA_down>  (22) 
0.0

>  <BSK_CASM3C_SAA_up>  (22) 
0.0

>  <BSK_CASM3C_SRB_down>  (22) 
0.0

>  <BSK_CASM3C_SRB_up>  (22) 
0.0

>  <BSK_CASM3C_Thrombomodulin_down>  (22) 
0.0

>  <BSK_CASM3C_Thrombomodulin_up>  (22) 
0.0

>  <BSK_CASM3C_TissueFactor_down>  (22) 
1.0

>  <BSK_CASM3C_TissueFactor_up>  (22) 
0.0

>  <BSK_CASM3C_VCAM1_down>  (22) 
0.0

>  <BSK_CASM3C_VCAM1_up>  (22) 
0.0

>  <BSK_CASM3C_uPAR_down>  (22) 
0.0

>  <BSK_CASM3C_uPAR_up>  (22) 
0.0

>  <BSK_KF3CT_ICAM1_down>  (22) 
0.0

>  <BSK_KF3CT_ICAM1_up>  (22) 
0.0

>  <BSK_KF3CT_IL1a_down>  (22) 
0.0

>  <BSK_KF3CT_IL1a_up>  (22) 
0.0

>  <BSK_KF3CT_IP10_down>  (22) 
0.0

>  <BSK_KF3CT_IP10_up>  (22) 
0.0

>  <BSK_KF3CT_MCP1_down>  (22) 
1.0

>  <BSK_KF3CT_MCP1_up>  (22) 
0.0

>  <BSK_KF3CT_MMP9_down>  (22) 
1.0

>  <BSK_KF3CT_MMP9_up>  (22) 
0.0

>  <BSK_KF3CT_SRB_down>  (22) 
0.0

>  <BSK_KF3CT_SRB_up>  (22) 
0.0

>  <BSK_KF3CT_TGFb1_down>  (22) 
0.0

>  <BSK_KF3CT_TGFb1_up>  (22) 
0.0

>  <BSK_KF3CT_TIMP2_down>  (22) 
0.0

>  <BSK_KF3CT_TIMP2_up>  (22) 
0.0

>  <BSK_KF3CT_uPA_down>  (22) 
0.0

>  <BSK_KF3CT_uPA_up>  (22) 
0.0

>  <BSK_LPS_CD40_down>  (22) 
0.0

>  <BSK_LPS_CD40_up>  (22) 
0.0

>  <BSK_LPS_Eselectin_down>  (22) 
0.0

>  <BSK_LPS_Eselectin_up>  (22) 
0.0

>  <BSK_LPS_IL1a_down>  (22) 
0.0

>  <BSK_LPS_IL1a_up>  (22) 
0.0

>  <BSK_LPS_IL8_down>  (22) 
0.0

>  <BSK_LPS_IL8_up>  (22) 
0.0

>  <BSK_LPS_MCP1_down>  (22) 
0.0

>  <BSK_LPS_MCP1_up>  (22) 
0.0

>  <BSK_LPS_MCSF_down>  (22) 
0.0

>  <BSK_LPS_MCSF_up>  (22) 
0.0

>  <BSK_LPS_PGE2_down>  (22) 
1.0

>  <BSK_LPS_PGE2_up>  (22) 
0.0

>  <BSK_LPS_SRB_down>  (22) 
0.0

>  <BSK_LPS_SRB_up>  (22) 
0.0

>  <BSK_LPS_TNFa_down>  (22) 
0.0

>  <BSK_LPS_TNFa_up>  (22) 
0.0

>  <BSK_LPS_TissueFactor_down>  (22) 
0.0

>  <BSK_LPS_TissueFactor_up>  (22) 
0.0

>  <BSK_LPS_VCAM1_down>  (22) 
0.0

>  <BSK_LPS_VCAM1_up>  (22) 
0.0

>  <BSK_SAg_CD38_down>  (22) 
1.0

>  <BSK_SAg_CD38_up>  (22) 
0.0

>  <BSK_SAg_CD40_down>  (22) 
0.0

>  <BSK_SAg_CD40_up>  (22) 
0.0

>  <BSK_SAg_CD69_down>  (22) 
0.0

>  <BSK_SAg_CD69_up>  (22) 
0.0

>  <BSK_SAg_Eselectin_down>  (22) 
0.0

>  <BSK_SAg_Eselectin_up>  (22) 
0.0

>  <BSK_SAg_IL8_down>  (22) 
0.0

>  <BSK_SAg_IL8_up>  (22) 
0.0

>  <BSK_SAg_MCP1_down>  (22) 
0.0

>  <BSK_SAg_MCP1_up>  (22) 
0.0

>  <BSK_SAg_MIG_down>  (22) 
0.0

>  <BSK_SAg_MIG_up>  (22) 
0.0

>  <BSK_SAg_PBMCCytotoxicity_down>  (22) 
0.0

>  <BSK_SAg_PBMCCytotoxicity_up>  (22) 
0.0

>  <BSK_SAg_Proliferation_down>  (22) 
0.0

>  <BSK_SAg_Proliferation_up>  (22) 
0.0

>  <BSK_SAg_SRB_down>  (22) 
0.0

>  <BSK_SAg_SRB_up>  (22) 
0.0

>  <BSK_hDFCGF_CollagenIII_down>  (22) 
0.0

>  <BSK_hDFCGF_CollagenIII_up>  (22) 
0.0

>  <BSK_hDFCGF_EGFR_down>  (22) 
0.0

>  <BSK_hDFCGF_EGFR_up>  (22) 
0.0

>  <BSK_hDFCGF_IL8_down>  (22) 
0.0

>  <BSK_hDFCGF_IL8_up>  (22) 
0.0

>  <BSK_hDFCGF_IP10_down>  (22) 
0.0

>  <BSK_hDFCGF_IP10_up>  (22) 
0.0

>  <BSK_hDFCGF_MCSF_down>  (22) 
0.0

>  <BSK_hDFCGF_MCSF_up>  (22) 
0.0

>  <BSK_hDFCGF_MIG_down>  (22) 
0.0

>  <BSK_hDFCGF_MIG_up>  (22) 
0.0

>  <BSK_hDFCGF_MMP1_down>  (22) 
0.0

>  <BSK_hDFCGF_MMP1_up>  (22) 
0.0

>  <BSK_hDFCGF_PAI1_down>  (22) 
0.0

>  <BSK_hDFCGF_PAI1_up>  (22) 
0.0

>  <BSK_hDFCGF_Proliferation_down>  (22) 
0.0

>  <BSK_hDFCGF_Proliferation_up>  (22) 
0.0

>  <BSK_hDFCGF_SRB_down>  (22) 
0.0

>  <BSK_hDFCGF_SRB_up>  (22) 
0.0

>  <BSK_hDFCGF_TIMP1_down>  (22) 
0.0

>  <BSK_hDFCGF_TIMP1_up>  (22) 
0.0

>  <BSK_hDFCGF_VCAM1_down>  (22) 
0.0

>  <BSK_hDFCGF_VCAM1_up>  (22) 
0.0

>  <NCCT_HEK293T_CellTiterGLO>  (22) 
0.0

>  <NCCT_QuantiLum_inhib_2_dn>  (22) 
0.0

>  <NCCT_TPO_AUR_dn>  (22) 
1.0

>  <NVS_ADME_hCYP2D6>  (22) 
1.0

>  <NVS_ADME_hCYP2D6_Activator>  (22) 
0.0

>  <NVS_ADME_hCYP3A4>  (22) 
0.0

>  <NVS_ADME_hCYP3A4_Activator>  (22) 
1.0

>  <NVS_ADME_rCYP1A2>  (22) 
0.0

>  <NVS_ADME_rCYP1A2_Activator>  (22) 
0.0

>  <NVS_ENZ_hDUSP3>  (22) 
1.0

>  <NVS_ENZ_hDUSP3_Activator>  (22) 
0.0

>  <NVS_ENZ_hEphA1>  (22) 
0.0

>  <NVS_ENZ_hEphA1_Activator>  (22) 
0.0

>  <NVS_ENZ_hMMP9>  (22) 
1.0

>  <NVS_ENZ_hMMP9_Activator>  (22) 
0.0

>  <NVS_ENZ_rMAOAC>  (22) 
1.0

>  <NVS_ENZ_rMAOAC_Activator>  (22) 
0.0

>  <NVS_GPCR_gLTD4>  (22) 
0.0

>  <NVS_GPCR_hAdoRA1>  (22) 
0.0

>  <NVS_GPCR_hAdoRA2a>  (22) 
1.0

>  <NVS_GPCR_hTXA2>  (22) 
1.0

>  <NVS_GPCR_rTRH>  (22) 
0.0

>  <NVS_IC_rCaBTZCHL>  (22) 
0.0

>  <NVS_MP_rPBR>  (22) 
1.0

>  <NVS_TR_rVMAT2>  (22) 
1.0

>  <OT_AR_ARSRC1_0480>  (22) 
0.0

>  <OT_AR_ARSRC1_0960>  (22) 
1.0

>  <OT_ER_ERaERa_0480>  (22) 
1.0

>  <OT_ER_ERaERa_1440>  (22) 
1.0

>  <OT_ER_ERaERb_0480>  (22) 
1.0

>  <OT_ER_ERbERb_0480>  (22) 
1.0

>  <OT_ER_ERbERb_1440>  (22) 
1.0

>  <OT_ERa_EREGFP_0480>  (22) 
1.0

>  <TOX21_AP1_BLA_Agonist_ch1>  (22) 
0.0

>  <TOX21_AP1_BLA_Agonist_ch2>  (22) 
0.0

>  <TOX21_AP1_BLA_Agonist_ratio>  (22) 
0.0

>  <TOX21_AP1_BLA_Agonist_viability>  (22) 
0.0

>  <TOX21_ARE_BLA_Agonist_ch1>  (22) 
0.0

>  <TOX21_ARE_BLA_Agonist_ch2>  (22) 
1.0

>  <TOX21_ARE_BLA_agonist_viability>  (22) 
0.0

>  <TOX21_AR_BLA_Agonist_ch1>  (22) 
0.0

>  <TOX21_AR_BLA_Agonist_ch2>  (22) 
0.0

>  <TOX21_AR_BLA_Agonist_ratio>  (22) 
0.0

>  <TOX21_AR_BLA_Antagonist_ch1>  (22) 
1.0

>  <TOX21_AR_BLA_Antagonist_ch2>  (22) 
1.0

>  <TOX21_AR_BLA_Antagonist_ratio>  (22) 
1.0

>  <TOX21_AR_BLA_Antagonist_viability>  (22) 
1.0

>  <TOX21_AR_LUC_MDAKB2_Agonist>  (22) 
0.0

>  <TOX21_AR_LUC_MDAKB2_Agonist_3uM_Nilutamide>  (22) 
0.0

>  <TOX21_AR_LUC_MDAKB2_Agonist_3uM_Nilutamide_viability>  (22) 
0.0

>  <TOX21_AR_LUC_MDAKB2_Antagonist_0.5nM_R1881>  (22) 
1.0

>  <TOX21_AR_LUC_MDAKB2_Antagonist_0.5nM_R1881_viability>  (22) 
0.0

>  <TOX21_AR_LUC_MDAKB2_Antagonist_10nM_R1881>  (22) 
0.0

>  <TOX21_AR_LUC_MDAKB2_Antagonist_10nM_R1881_viability>  (22) 
0.0

>  <TOX21_AhR_LUC_Agonist>  (22) 
0.0

>  <TOX21_Aromatase_Inhibition>  (22) 
0.0

>  <TOX21_Aromatase_Inhibition_viability>  (22) 
1.0

>  <TOX21_AutoFluor_HEK293_Cell_blue>  (22) 
0.0

>  <TOX21_AutoFluor_HEK293_Cell_green>  (22) 
0.0

>  <TOX21_AutoFluor_HEK293_Cell_red>  (22) 
0.0

>  <TOX21_AutoFluor_HEK293_Media_blue>  (22) 
0.0

>  <TOX21_AutoFluor_HEK293_Media_green>  (22) 
0.0

>  <TOX21_AutoFluor_HEK293_Media_red>  (22) 
0.0

>  <TOX21_AutoFluor_HEPG2_Cell_blue>  (22) 
0.0

>  <TOX21_AutoFluor_HEPG2_Cell_green>  (22) 
0.0

>  <TOX21_AutoFluor_HEPG2_Cell_red>  (22) 
0.0

>  <TOX21_AutoFluor_HEPG2_Media_blue>  (22) 
0.0

>  <TOX21_AutoFluor_HEPG2_Media_green>  (22) 
0.0

>  <TOX21_AutoFluor_HEPG2_Media_red>  (22) 
0.0

>  <TOX21_CAR_Agonist>  (22) 
1.0

>  <TOX21_CAR_Antagonist>  (22) 
0.0

>  <TOX21_CAR_Antagonist_viability>  (22) 
0.0

>  <TOX21_CASP3_CHO>  (22) 
0.0

>  <TOX21_CASP3_CHO_viability>  (22) 
1.0

>  <TOX21_CASP3_HEPG2>  (22) 
0.0

>  <TOX21_CASP3_HEPG2_viability>  (22) 
0.0

>  <TOX21_DT40>  (22) 
1.0

>  <TOX21_DT40_100>  (22) 
1.0

>  <TOX21_DT40_657>  (22) 
1.0

>  <TOX21_ELG1_LUC_Agonist>  (22) 
0.0

>  <TOX21_ELG1_LUC_Agonist_viability>  (22) 
0.0

>  <TOX21_ERR_Agonist>  (22) 
0.0

>  <TOX21_ERR_Antagonist>  (22) 
0.0

>  <TOX21_ERa_BLA_Agonist_ch1>  (22) 
1.0

>  <TOX21_ERa_BLA_Agonist_ch2>  (22) 
1.0

>  <TOX21_ERa_BLA_Agonist_ratio>  (22) 
1.0

>  <TOX21_ERa_BLA_Antagonist_ch1>  (22) 
0.0

>  <TOX21_ERa_BLA_Antagonist_ch2>  (22) 
0.0

>  <TOX21_ERa_BLA_Antagonist_ratio>  (22) 
0.0

>  <TOX21_ERa_BLA_Antagonist_viability>  (22) 
0.0

>  <TOX21_ERa_LUC_VM7_Agonist>  (22) 
1.0

>  <TOX21_ERa_LUC_VM7_Agonist_10nM_ICI182780>  (22) 
1.0

>  <TOX21_ERa_LUC_VM7_Agonist_10nM_ICI182780_viability>  (22) 
0.0

>  <TOX21_ERa_LUC_VM7_Antagonist_0.1nM_E2>  (22) 
0.0

>  <TOX21_ERa_LUC_VM7_Antagonist_0.1nM_E2_viability>  (22) 
0.0

>  <TOX21_ERa_LUC_VM7_Antagonist_0.5nM_E2>  (22) 
0.0

>  <TOX21_ERa_LUC_VM7_Antagonist_0.5nM_E2_viability>  (22) 
0.0

>  <TOX21_ERb_BLA_Agonist_ch1>  (22) 
0.0

>  <TOX21_ERb_BLA_Agonist_ch2>  (22) 
1.0

>  <TOX21_ERb_BLA_Agonist_ratio>  (22) 
0.0

>  <TOX21_ERb_BLA_Agonist_viability>  (22) 
0.0

>  <TOX21_ERb_BLA_Antagonist_ch1>  (22) 
1.0

>  <TOX21_ERb_BLA_Antagonist_ch2>  (22) 
1.0

>  <TOX21_ERb_BLA_Antagonist_ratio>  (22) 
1.0

>  <TOX21_ERb_BLA_Antagonist_viability>  (22) 
0.0

>  <TOX21_ESRE_BLA_ch1>  (22) 
0.0

>  <TOX21_ESRE_BLA_ch2>  (22) 
0.0

>  <TOX21_ESRE_BLA_ratio>  (22) 
0.0

>  <TOX21_ESRE_BLA_viability>  (22) 
0.0

>  <TOX21_FXR_BLA_Antagonist_ch1>  (22) 
0.0

>  <TOX21_FXR_BLA_Antagonist_ch2>  (22) 
0.0

>  <TOX21_FXR_BLA_agonist_ch1>  (22) 
0.0

>  <TOX21_FXR_BLA_agonist_ch2>  (22) 
0.0

>  <TOX21_FXR_BLA_agonist_ratio>  (22) 
0.0

>  <TOX21_FXR_BLA_agonist_viability>  (22) 
0.0

>  <TOX21_FXR_BLA_antagonist_ratio>  (22) 
0.0

>  <TOX21_FXR_BLA_antagonist_viability>  (22) 
0.0

>  <TOX21_GR_BLA_Agonist_ch1>  (22) 
0.0

>  <TOX21_GR_BLA_Agonist_ch2>  (22) 
0.0

>  <TOX21_GR_BLA_Agonist_ratio>  (22) 
0.0

>  <TOX21_GR_BLA_Antagonist_ch1>  (22) 
0.0

>  <TOX21_GR_BLA_Antagonist_ch2>  (22) 
0.0

>  <TOX21_GR_BLA_Antagonist_ratio>  (22) 
0.0

>  <TOX21_GR_BLA_Antagonist_viability>  (22) 
0.0

>  <TOX21_H2AX_HTRF_CHO_Agonist_ch1>  (22) 
0.0

>  <TOX21_H2AX_HTRF_CHO_Agonist_ch2>  (22) 
0.0

>  <TOX21_H2AX_HTRF_CHO_Agonist_ratio>  (22) 
0.0

>  <TOX21_H2AX_HTRF_CHO_viability>  (22) 
0.0

>  <TOX21_HDAC_Inhibition>  (22) 
1.0

>  <TOX21_HDAC_Inhibition_viability>  (22) 
0.0

>  <TOX21_HRE_BLA_Agonist_ch1>  (22) 
0.0

>  <TOX21_HRE_BLA_Agonist_ch2>  (22) 
0.0

>  <TOX21_HRE_BLA_Agonist_ratio>  (22) 
0.0

>  <TOX21_HRE_BLA_Agonist_viability>  (22) 
0.0

>  <TOX21_HSE_BLA_agonist_ch1>  (22) 
0.0

>  <TOX21_HSE_BLA_agonist_ch2>  (22) 
0.0

>  <TOX21_HSE_BLA_agonist_ratio>  (22) 
0.0

>  <TOX21_HSE_BLA_agonist_viability>  (22) 
0.0

>  <TOX21_LUC_Biochem>  (22) 
0.0

>  <TOX21_MMP_fitc>  (22) 
0.0

>  <TOX21_MMP_ratio_down>  (22) 
1.0

>  <TOX21_MMP_ratio_up>  (22) 
0.0

>  <TOX21_MMP_rhodamine>  (22) 
1.0

>  <TOX21_MMP_viability>  (22) 
1.0

>  <TOX21_NFkB_BLA_agonist_ch1>  (22) 
0.0

>  <TOX21_NFkB_BLA_agonist_ch2>  (22) 
0.0

>  <TOX21_NFkB_BLA_agonist_ratio>  (22) 
0.0

>  <TOX21_NFkB_BLA_agonist_viability>  (22) 
0.0

>  <TOX21_PGC_ERR_Agonist>  (22) 
0.0

>  <TOX21_PGC_ERR_Antagonist>  (22) 
0.0

>  <TOX21_PGC_ERR_viability>  (22) 
0.0

>  <TOX21_PPARd_BLA_Agonist_viability>  (22) 
0.0

>  <TOX21_PPARd_BLA_Antagonist_ch1>  (22) 
0.0

>  <TOX21_PPARd_BLA_Antagonist_ch2>  (22) 
0.0

>  <TOX21_PPARd_BLA_agonist_ch1>  (22) 
0.0

>  <TOX21_PPARd_BLA_agonist_ch2>  (22) 
0.0

>  <TOX21_PPARd_BLA_agonist_ratio>  (22) 
0.0

>  <TOX21_PPARd_BLA_antagonist_ratio>  (22) 
0.0

>  <TOX21_PPARd_BLA_antagonist_viability>  (22) 
0.0

>  <TOX21_PPARg_BLA_Agonist_ch1>  (22) 
0.0

>  <TOX21_PPARg_BLA_Agonist_ch2>  (22) 
0.0

>  <TOX21_PPARg_BLA_Agonist_ratio>  (22) 
0.0

>  <TOX21_PPARg_BLA_Antagonist_ch1>  (22) 
0.0

>  <TOX21_PPARg_BLA_Antagonist_ch2>  (22) 
0.0

>  <TOX21_PPARg_BLA_antagonist_ratio>  (22) 
0.0

>  <TOX21_PPARg_BLA_antagonist_viability>  (22) 
0.0

>  <TOX21_PR_BLA_Agonist_ch1>  (22) 
0.0

>  <TOX21_PR_BLA_Agonist_ch2>  (22) 
0.0

>  <TOX21_PR_BLA_Agonist_ratio>  (22) 
0.0

>  <TOX21_PR_BLA_Antagonist_ch1>  (22) 
0.0

>  <TOX21_PR_BLA_Antagonist_ch2>  (22) 
1.0

>  <TOX21_PR_BLA_Antagonist_ratio>  (22) 
1.0

>  <TOX21_PR_BLA_Antagonist_viability>  (22) 
1.0

>  <TOX21_PR_BLA_Followup_Agonist_ch1>  (22) 
0.0

>  <TOX21_PR_BLA_Followup_Agonist_ch2>  (22) 
0.0

>  <TOX21_PR_BLA_Followup_Agonist_ratio>  (22) 
0.0

>  <TOX21_PR_BLA_Followup_Agonist_viability>  (22) 
0.0

>  <TOX21_PR_BLA_Followup_Antagonist_ch1>  (22) 
0.0

>  <TOX21_PR_BLA_Followup_Antagonist_ch2>  (22) 
0.0

>  <TOX21_PR_BLA_Followup_Antagonist_ratio>  (22) 
1.0

>  <TOX21_PR_BLA_Followup_Antagonist_viability>  (22) 
0.0

>  <TOX21_PR_LUC_Followup_Agonist>  (22) 
0.0

>  <TOX21_PR_LUC_Followup_Agonist_viability>  (22) 
0.0

>  <TOX21_PR_LUC_Followup_Antagonist>  (22) 
1.0

>  <TOX21_PR_LUC_Followup_Antagonist_viability>  (22) 
0.0

>  <TOX21_PXR_Agonist>  (22) 
0.0

>  <TOX21_PXR_viability>  (22) 
1.0

>  <TOX21_RAR_LUC_Agonist>  (22) 
1.0

>  <TOX21_RAR_LUC_Agonist_viability>  (22) 
0.0

>  <TOX21_RAR_LUC_Antagonist_viability>  (22) 
0.0

>  <TOX21_RORg_LUC_CHO_Antagonist>  (22) 
0.0

>  <TOX21_RORg_LUC_CHO_Antagonist_viability>  (22) 
0.0

>  <TOX21_RT_HEK293_FLO_00hr_viability>  (22) 
0.0

>  <TOX21_RT_HEK293_FLO_08hr_viability>  (22) 
0.0

>  <TOX21_RT_HEK293_FLO_16hr_viability>  (22) 
0.0

>  <TOX21_RT_HEK293_FLO_24hr_viability>  (22) 
0.0

>  <TOX21_RT_HEK293_FLO_32hr_viability>  (22) 
0.0

>  <TOX21_RT_HEK293_FLO_40hr_viability>  (22) 
0.0

>  <TOX21_RT_HEK293_GLO_00hr_viability>  (22) 
0.0

>  <TOX21_RT_HEK293_GLO_08hr_viability>  (22) 
0.0

>  <TOX21_RT_HEK293_GLO_16hr_viability>  (22) 
0.0

>  <TOX21_RT_HEK293_GLO_24hr_viability>  (22) 
0.0

>  <TOX21_RT_HEK293_GLO_32hr_viability>  (22) 
0.0

>  <TOX21_RT_HEK293_GLO_40hr_viability>  (22) 
0.0

>  <TOX21_RT_HEPG2_FLO_00hr_ctrl_viability>  (22) 
0.0

>  <TOX21_RT_HEPG2_FLO_08hr_viability>  (22) 
0.0

>  <TOX21_RT_HEPG2_FLO_16hr_ctrl_viability>  (22) 
1.0

>  <TOX21_RT_HEPG2_FLO_24hr_viability>  (22) 
1.0

>  <TOX21_RT_HEPG2_FLO_32hr_ctrl_viability>  (22) 
1.0

>  <TOX21_RT_HEPG2_GLO_00hr_ctrl_viability>  (22) 
0.0

>  <TOX21_RT_HEPG2_GLO_08hr_ctrl_viability>  (22) 
1.0

>  <TOX21_RT_HEPG2_GLO_16hr_ctrl_viability>  (22) 
0.0

>  <TOX21_RT_HEPG2_GLO_24hr_ctrl_viability>  (22) 
0.0

>  <TOX21_RT_HEPG2_GLO_32hr_ctrl_viability>  (22) 
0.0

>  <TOX21_RT_HEPG2_GLO_40hr_viability>  (22) 
0.0

>  <TOX21_RXR_BLA_Agonist_ch1>  (22) 
0.0

>  <TOX21_RXR_BLA_Agonist_ch2>  (22) 
0.0

>  <TOX21_RXR_BLA_Agonist_ratio>  (22) 
0.0

>  <TOX21_RXR_BLA_Agonist_viability>  (22) 
0.0

>  <TOX21_SBE_BLA_Agonist_ch1>  (22) 
0.0

>  <TOX21_SBE_BLA_Agonist_ch2>  (22) 
0.0

>  <TOX21_SBE_BLA_Agonist_ratio>  (22) 
0.0

>  <TOX21_SBE_BLA_Agonist_viability>  (22) 
0.0

>  <TOX21_SBE_BLA_Antagonist_ch1>  (22) 
0.0

>  <TOX21_SBE_BLA_Antagonist_ch2>  (22) 
0.0

>  <TOX21_SBE_BLA_Antagonist_ratio>  (22) 
0.0

>  <TOX21_SBE_BLA_Antagonist_viability>  (22) 
0.0

>  <TOX21_SSH_3T3_GLI3_Agonist>  (22) 
0.0

>  <TOX21_SSH_3T3_GLI3_Agonist_viability>  (22) 
0.0

>  <TOX21_SSH_3T3_GLI3_Antagonist>  (22) 
1.0

>  <TOX21_SSH_3T3_GLI3_Antagonist_viability>  (22) 
1.0

>  <TOX21_TRA_COA_Agonist_Followup_ch1>  (22) 
0.0

>  <TOX21_TRA_COA_Agonist_Followup_ch2>  (22) 
0.0

>  <TOX21_TRA_COA_Agonist_Followup_ratio>  (22) 
0.0

>  <TOX21_TRB_BLA_Agonist_Followup_ch1>  (22) 
0.0

>  <TOX21_TRB_BLA_Agonist_Followup_ch2>  (22) 
0.0

>  <TOX21_TRB_BLA_Agonist_Followup_ratio>  (22) 
0.0

>  <TOX21_TRB_BLA_Agonist_Followup_viability>  (22) 
0.0

>  <TOX21_TRB_COA_Agonist_Followup_ch1>  (22) 
0.0

>  <TOX21_TRB_COA_Agonist_Followup_ch2>  (22) 
0.0

>  <TOX21_TRB_COA_Agonist_Followup_ratio>  (22) 
0.0

>  <TOX21_TRHR_HEK293_Agonist>  (22) 
0.0

>  <TOX21_TRHR_HEK293_Antagonist>  (22) 
0.0

>  <TOX21_TR_LUC_GH3_Agonist>  (22) 
0.0

>  <TOX21_TR_LUC_GH3_Agonist_Followup>  (22) 
0.0

>  <TOX21_TR_LUC_GH3_Antagonist>  (22) 
1.0

>  <TOX21_TR_LUC_GH3_Antagonist_viability>  (22) 
0.0

>  <TOX21_TR_RXR_BLA_Agonist_Followup_ch1>  (22) 
0.0

>  <TOX21_TR_RXR_BLA_Agonist_Followup_ch2>  (22) 
0.0

>  <TOX21_TR_RXR_BLA_Agonist_Followup_ratio>  (22) 
0.0

>  <TOX21_TR_RXR_BLA_Agonist_Followup_viability>  (22) 
0.0

>  <TOX21_TSHR_Agonist_ch2>  (22) 
0.0

>  <TOX21_TSHR_Antagonist_ch2>  (22) 
0.0

>  <TOX21_TSHR_Antagonist_ratio>  (22) 
0.0

>  <TOX21_TSHR_HTRF_Agonist_ch1>  (22) 
0.0

>  <TOX21_TSHR_HTRF_Antagonist_ch1>  (22) 
0.0

>  <TOX21_TSHR_wt_HTRF_ch1>  (22) 
0.0

>  <TOX21_TSHR_wt_ch2>  (22) 
0.0

>  <TOX21_TSHR_wt_ratio>  (22) 
0.0

>  <TOX21_VDR_BLA_Agonist_viability>  (22) 
0.0

>  <TOX21_VDR_BLA_Antagonist_ch1>  (22) 
0.0

>  <TOX21_VDR_BLA_Antagonist_ch2>  (22) 
0.0

>  <TOX21_VDR_BLA_agonist_ch1>  (22) 
0.0

>  <TOX21_VDR_BLA_agonist_ch2>  (22) 
0.0

>  <TOX21_VDR_BLA_agonist_ratio>  (22) 
0.0

>  <TOX21_VDR_BLA_antagonist_ratio>  (22) 
0.0

>  <TOX21_VDR_BLA_antagonist_viability>  (22) 
0.0

>  <TOX21_p53_BLA_p1_ch1>  (22) 
0.0

>  <TOX21_p53_BLA_p1_ch2>  (22) 
0.0

>  <TOX21_p53_BLA_p1_ratio>  (22) 
0.0

>  <TOX21_p53_BLA_p1_viability>  (22) 
0.0

>  <TOX21_p53_BLA_p2_ch1>  (22) 
1.0

>  <TOX21_p53_BLA_p2_ch2>  (22) 
0.0

>  <TOX21_p53_BLA_p2_ratio>  (22) 
0.0

>  <TOX21_p53_BLA_p2_viability>  (22) 
0.0

>  <TOX21_p53_BLA_p3_ch1>  (22) 
0.0

>  <TOX21_p53_BLA_p3_ch2>  (22) 
0.0

>  <TOX21_p53_BLA_p3_ratio>  (22) 
0.0

>  <TOX21_p53_BLA_p4_ch1>  (22) 
0.0

>  <TOX21_p53_BLA_p4_ch2>  (22) 
0.0

>  <TOX21_p53_BLA_p4_ratio>  (22) 
0.0

>  <TOX21_p53_BLA_p4_viability>  (22) 
0.0

>  <TOX21_p53_BLA_p5_ch1>  (22) 
0.0

>  <TOX21_p53_BLA_p5_ch2>  (22) 
0.0

>  <TOX21_p53_BLA_p5_ratio>  (22) 
0.0

>  <TOX21_p53_BLA_p5_viability>  (22) 
0.0

>  <UPITT_HCI_U2OS_AR_TIF2_Nucleoli_Agonist>  (22) 
0.0

>  <UPITT_HCI_U2OS_AR_TIF2_Nucleoli_Antagonist>  (22) 
1.0

>  <UPITT_HCI_U2OS_AR_TIF2_Nucleoli_Cytoplasm_Ratio_Agonist>  (22) 
0.0

>  <UPITT_HCI_U2OS_AR_TIF2_Nucleoli_Cytoplasm_Ratio_Antagonist>  (22) 
1.0

>  <NVS_NR_mERa>  (22) 
1

$$$$

     RDKit          3D

 17 18  0  0  0  0  0  0  0  0999 V2000
    0.0000    0.0000    0.0000 C   0  0  0  0  0  0  0  0  0  0  0  0
    0.0000    0.0000    0.0000 C   0  0  0  0  0  0  0  0  0  0  0  0
    0.0000    0.0000    0.0000 C   0  0  0  0  0  0  0  0  0  0  0  0
    0.0000    0.0000    0.0000 C   0  0  0  0  0  0  0  0  0  0  0  0
    0.0000    0.0000    0.0000 C   0  0  0  0  0  0  0  0  0  0  0  0
    0.0000    0.0000    0.0000 C   0  0  0  0  0  0  0  0  0  0  0  0
    0.0000    0.0000    0.0000 O   0  0  0  0  0  0  0  0  0  0  0  0
    0.0000    0.0000    0.0000 S   0  0  0  0  0  0  0  0  0  0  0  0
    0.0000    0.0000    0.0000 O   0  0  0  0  0  0  0  0  0  0  0  0
    0.0000    0.0000    0.0000 O   0  0  0  0  0  0  0  0  0  0  0  0
    0.0000    0.0000    0.0000 C   0  0  0  0  0  0  0  0  0  0  0  0
    0.0000    0.0000    0.0000 C   0  0  0  0  0  0  0  0  0  0  0  0
    0.0000    0.0000    0.0000 C   0  0  0  0  0  0  0  0  0  0  0  0
    0.0000    0.0000    0.0000 C   0  0  0  0  0  0  0  0  0  0  0  0
    0.0000    0.0000    0.0000 C   0  0  0  0  0  0  0  0  0  0  0  0
    0.0000    0.0000    0.0000 C   0  0  0  0  0  0  0  0  0  0  0  0
    0.0000    0.0000    0.0000 O   0  0  0  0  0  0  0  0  0  0  0  0
  1  2  2  0
  2  3  1  0
  3  4  2  0
  4  5  1  0
  5  6  2  0
  6  7  1  0
  3  8  1  0
  8  9  2  0
  8 10  2  0
  8 11  1  0
 11 12  2  0
 12 13  1  0
 13 14  2  0
 14 15  1  0
 15 16  2  0
 14 17  1  0
  6  1  1  0
 16 11  1  0
M  END
>  <CASRN>  (23) 
80-09-1

>  <Name>  (23) 
Bisphenol S

>  <Active>  (23) 
2

>  <Inactive>  (23) 
0

>  <Bioactivity>  (23) 
Active

>  <Min LEL>  (23) 
20.0

>  <Max HDT>  (23) 
nan

>  <Class>  (23) 
1

>  <Code>  (23) 
C80091

>  <NVS_NR_hER>  (23) 
1.0

>  <OT_ER_ERaERb_1440>  (23) 
1.0

>  <OT_FXR_FXRSRC1_0480>  (23) 
0.0

>  <OT_PPARg_PPARgSRC1_1440>  (23) 
0.0

>  <OT_FXR_FXRSRC1_1440>  (23) 
0.0

>  <OT_NURR1_NURR1RXRa_0480>  (23) 
0.0

>  <OT_NURR1_NURR1RXRa_1440>  (23) 
0.0

>  <OT_PPARg_PPARgSRC1_0480>  (23) 
0.0

>  <OT_AR_ARELUC_AG_1440>  (23) 
0.0

>  <OT_ERa_EREGFP_0120>  (23) 
1.0

>  <ATG_CAR_TRANS_up>  (23) 
0.0

>  <ATG_E2F_CIS_dn>  (23) 
0.0

>  <ATG_EGR_CIS_up>  (23) 
0.0

>  <ATG_ERa_TRANS_dn>  (23) 
0.0

>  <ATG_ERa_TRANS_up>  (23) 
1.0

>  <ATG_FXR_TRANS_dn>  (23) 
0.0

>  <ATG_GLI_CIS_dn>  (23) 
0.0

>  <ATG_GRE_CIS_up>  (23) 
0.0

>  <ATG_LXRa_TRANS_dn>  (23) 
0.0

>  <ATG_LXRa_TRANS_up>  (23) 
0.0

>  <ATG_NRF1_CIS_up>  (23) 
0.0

>  <ATG_NURR1_TRANS_up>  (23) 
0.0

>  <ATG_Sox_CIS_dn>  (23) 
0.0

>  <ATG_Sox_CIS_up>  (23) 
0.0

>  <ATG_Sp1_CIS_up>  (23) 
0.0

>  <ATG_TGFb_CIS_up>  (23) 
0.0

>  <TOX21_ARE_BLA_agonist_ratio>  (23) 
0.0

>  <TOX21_RAR_LUC_Antagonist>  (23) 
0.0

>  <ATG_LXRb_TRANS_dn>  (23) 
0.0

>  <ATG_CAR_TRANS_dn>  (23) 
0.0

>  <ATG_BRE_CIS_dn>  (23) 
0.0

>  <ATG_E2F_CIS_up>  (23) 
0.0

>  <TOX21_TSHR_Agonist_ratio>  (23) 
0.0

>  <ACEA_ER_80hr>  (23) 
1.0

>  <TOX21_CAR_Agonist_viabillity>  (23) 
0.0

>  <TOX21_PR_BLA_Agonist_viability>  (23) 
0.0

>  <TOX21_RT_HEPG2_FLO_40hr_ctrl_viability>  (23) 
0.0

>  <TOX21_AhR_LUC_Agonist_viability>  (23) 
0.0

>  <TOX21_ERR_viability>  (23) 
0.0

>  <TOX21_p53_BLA_p3_viability>  (23) 
0.0

>  <NVS_NR_cAR>  (23) 
1.0

>  <NVS_NR_hPR>  (23) 
0.0

>  <BSK_3C_HLADR_down>  (23) 
0.0

>  <BSK_3C_Vis_down>  (23) 
0.0

>  <BSK_3C_uPAR_down>  (23) 
0.0

>  <NVS_NR_rAR>  (23) 
1.0

>  <NVS_NR_hGR>  (23) 
1.0

>  <NVS_NR_hAR>  (23) 
1.0

>  <NVS_NR_bER>  (23) 
1.0

>  <ACEA_AR_agonist_80hr>  (23) 
1.0

>  <ACEA_AR_agonist_AUC_viability>  (23) 
1.0

>  <ACEA_AR_antagonist_80hr>  (23) 
1.0

>  <ACEA_AR_antagonist_AUC_viability>  (23) 
0.0

>  <ACEA_ER_AUC_viability>  (23) 
0.0

>  <ATG_AP_1_CIS_dn>  (23) 
0.0

>  <ATG_AP_1_CIS_up>  (23) 
0.0

>  <ATG_AP_2_CIS_dn>  (23) 
0.0

>  <ATG_AP_2_CIS_up>  (23) 
0.0

>  <ATG_AR_TRANS_dn>  (23) 
0.0

>  <ATG_AR_TRANS_up>  (23) 
0.0

>  <ATG_Ahr_CIS_dn>  (23) 
0.0

>  <ATG_Ahr_CIS_up>  (23) 
0.0

>  <ATG_BRE_CIS_up>  (23) 
0.0

>  <ATG_CMV_CIS_dn>  (23) 
0.0

>  <ATG_CMV_CIS_up>  (23) 
0.0

>  <ATG_CRE_CIS_dn>  (23) 
0.0

>  <ATG_CRE_CIS_up>  (23) 
0.0

>  <ATG_C_EBP_CIS_dn>  (23) 
0.0

>  <ATG_C_EBP_CIS_up>  (23) 
0.0

>  <ATG_DR4_LXR_CIS_dn>  (23) 
0.0

>  <ATG_DR4_LXR_CIS_up>  (23) 
0.0

>  <ATG_DR5_CIS_dn>  (23) 
0.0

>  <ATG_DR5_CIS_up>  (23) 
0.0

>  <ATG_EGR_CIS_dn>  (23) 
0.0

>  <ATG_ERE_CIS_dn>  (23) 
0.0

>  <ATG_ERE_CIS_up>  (23) 
1.0

>  <ATG_ERRa_TRANS_dn>  (23) 
0.0

>  <ATG_ERRa_TRANS_up>  (23) 
0.0

>  <ATG_ERRg_TRANS_dn>  (23) 
0.0

>  <ATG_ERRg_TRANS_up>  (23) 
0.0

>  <ATG_E_Box_CIS_dn>  (23) 
0.0

>  <ATG_E_Box_CIS_up>  (23) 
0.0

>  <ATG_Ets_CIS_dn>  (23) 
0.0

>  <ATG_Ets_CIS_up>  (23) 
0.0

>  <ATG_FXR_TRANS_up>  (23) 
0.0

>  <ATG_FoxA2_CIS_dn>  (23) 
0.0

>  <ATG_FoxA2_CIS_up>  (23) 
0.0

>  <ATG_FoxO_CIS_dn>  (23) 
0.0

>  <ATG_FoxO_CIS_up>  (23) 
0.0

>  <ATG_GAL4_TRANS_dn>  (23) 
0.0

>  <ATG_GAL4_TRANS_up>  (23) 
0.0

>  <ATG_GATA_CIS_dn>  (23) 
0.0

>  <ATG_GATA_CIS_up>  (23) 
0.0

>  <ATG_GLI_CIS_up>  (23) 
0.0

>  <ATG_GRE_CIS_dn>  (23) 
0.0

>  <ATG_GR_TRANS_dn>  (23) 
0.0

>  <ATG_GR_TRANS_up>  (23) 
0.0

>  <ATG_HIF1a_CIS_dn>  (23) 
0.0

>  <ATG_HIF1a_CIS_up>  (23) 
1.0

>  <ATG_HNF4a_TRANS_dn>  (23) 
0.0

>  <ATG_HNF4a_TRANS_up>  (23) 
0.0

>  <ATG_HNF6_CIS_dn>  (23) 
1.0

>  <ATG_HNF6_CIS_up>  (23) 
0.0

>  <ATG_HSE_CIS_dn>  (23) 
0.0

>  <ATG_HSE_CIS_up>  (23) 
0.0

>  <ATG_IR1_CIS_dn>  (23) 
0.0

>  <ATG_IR1_CIS_up>  (23) 
0.0

>  <ATG_ISRE_CIS_dn>  (23) 
0.0

>  <ATG_ISRE_CIS_up>  (23) 
0.0

>  <ATG_LXRb_TRANS_up>  (23) 
0.0

>  <ATG_MRE_CIS_dn>  (23) 
0.0

>  <ATG_MRE_CIS_up>  (23) 
0.0

>  <ATG_M_06_CIS_dn>  (23) 
0.0

>  <ATG_M_06_CIS_up>  (23) 
0.0

>  <ATG_M_06_TRANS_dn>  (23) 
0.0

>  <ATG_M_06_TRANS_up>  (23) 
0.0

>  <ATG_M_19_CIS_dn>  (23) 
0.0

>  <ATG_M_19_CIS_up>  (23) 
0.0

>  <ATG_M_19_TRANS_dn>  (23) 
0.0

>  <ATG_M_19_TRANS_up>  (23) 
0.0

>  <ATG_M_32_CIS_dn>  (23) 
0.0

>  <ATG_M_32_CIS_up>  (23) 
0.0

>  <ATG_M_32_TRANS_dn>  (23) 
0.0

>  <ATG_M_32_TRANS_up>  (23) 
0.0

>  <ATG_M_61_CIS_dn>  (23) 
0.0

>  <ATG_M_61_CIS_up>  (23) 
0.0

>  <ATG_M_61_TRANS_dn>  (23) 
0.0

>  <ATG_M_61_TRANS_up>  (23) 
0.0

>  <ATG_Myb_CIS_dn>  (23) 
0.0

>  <ATG_Myb_CIS_up>  (23) 
0.0

>  <ATG_Myc_CIS_dn>  (23) 
0.0

>  <ATG_Myc_CIS_up>  (23) 
0.0

>  <ATG_NFI_CIS_dn>  (23) 
0.0

>  <ATG_NFI_CIS_up>  (23) 
0.0

>  <ATG_NF_kB_CIS_dn>  (23) 
0.0

>  <ATG_NF_kB_CIS_up>  (23) 
0.0

>  <ATG_NRF1_CIS_dn>  (23) 
0.0

>  <ATG_NRF2_ARE_CIS_dn>  (23) 
0.0

>  <ATG_NRF2_ARE_CIS_up>  (23) 
0.0

>  <ATG_NURR1_TRANS_dn>  (23) 
0.0

>  <ATG_Oct_MLP_CIS_dn>  (23) 
0.0

>  <ATG_Oct_MLP_CIS_up>  (23) 
0.0

>  <ATG_PBREM_CIS_dn>  (23) 
0.0

>  <ATG_PBREM_CIS_up>  (23) 
0.0

>  <ATG_PPARa_TRANS_dn>  (23) 
0.0

>  <ATG_PPARa_TRANS_up>  (23) 
0.0

>  <ATG_PPARd_TRANS_dn>  (23) 
0.0

>  <ATG_PPARd_TRANS_up>  (23) 
0.0

>  <ATG_PPARg_TRANS_dn>  (23) 
0.0

>  <ATG_PPARg_TRANS_up>  (23) 
1.0

>  <ATG_PPRE_CIS_dn>  (23) 
0.0

>  <ATG_PPRE_CIS_up>  (23) 
1.0

>  <ATG_PXRE_CIS_dn>  (23) 
1.0

>  <ATG_PXRE_CIS_up>  (23) 
0.0

>  <ATG_PXR_TRANS_dn>  (23) 
0.0

>  <ATG_PXR_TRANS_up>  (23) 
0.0

>  <ATG_Pax6_CIS_dn>  (23) 
0.0

>  <ATG_Pax6_CIS_up>  (23) 
0.0

>  <ATG_RARa_TRANS_dn>  (23) 
0.0

>  <ATG_RARa_TRANS_up>  (23) 
0.0

>  <ATG_RARb_TRANS_dn>  (23) 
0.0

>  <ATG_RARb_TRANS_up>  (23) 
0.0

>  <ATG_RARg_TRANS_dn>  (23) 
0.0

>  <ATG_RARg_TRANS_up>  (23) 
0.0

>  <ATG_RORE_CIS_dn>  (23) 
0.0

>  <ATG_RORE_CIS_up>  (23) 
0.0

>  <ATG_RORb_TRANS_dn>  (23) 
0.0

>  <ATG_RORb_TRANS_up>  (23) 
0.0

>  <ATG_RORg_TRANS_dn>  (23) 
0.0

>  <ATG_RORg_TRANS_up>  (23) 
0.0

>  <ATG_RXRa_TRANS_dn>  (23) 
0.0

>  <ATG_RXRa_TRANS_up>  (23) 
0.0

>  <ATG_RXRb_TRANS_dn>  (23) 
0.0

>  <ATG_RXRb_TRANS_up>  (23) 
0.0

>  <ATG_SREBP_CIS_dn>  (23) 
0.0

>  <ATG_SREBP_CIS_up>  (23) 
0.0

>  <ATG_STAT3_CIS_dn>  (23) 
0.0

>  <ATG_STAT3_CIS_up>  (23) 
0.0

>  <ATG_Sp1_CIS_dn>  (23) 
0.0

>  <ATG_TAL_CIS_dn>  (23) 
0.0

>  <ATG_TAL_CIS_up>  (23) 
0.0

>  <ATG_TA_CIS_dn>  (23) 
0.0

>  <ATG_TA_CIS_up>  (23) 
0.0

>  <ATG_TCF_b_cat_CIS_dn>  (23) 
0.0

>  <ATG_TCF_b_cat_CIS_up>  (23) 
0.0

>  <ATG_TGFb_CIS_dn>  (23) 
0.0

>  <ATG_THRa1_TRANS_dn>  (23) 
0.0

>  <ATG_THRa1_TRANS_up>  (23) 
0.0

>  <ATG_VDRE_CIS_dn>  (23) 
0.0

>  <ATG_VDRE_CIS_up>  (23) 
0.0

>  <ATG_VDR_TRANS_dn>  (23) 
0.0

>  <ATG_VDR_TRANS_up>  (23) 
0.0

>  <ATG_XTT_Cytotoxicity_up>  (23) 
0.0

>  <ATG_Xbp1_CIS_dn>  (23) 
0.0

>  <ATG_Xbp1_CIS_up>  (23) 
0.0

>  <ATG_p53_CIS_dn>  (23) 
0.0

>  <ATG_p53_CIS_up>  (23) 
0.0

>  <CEETOX_H295R_11DCORT_dn>  (23) 
1.0

>  <CEETOX_H295R_11DCORT_up>  (23) 
0.0

>  <CEETOX_H295R_ANDR_dn>  (23) 
1.0

>  <CEETOX_H295R_ANDR_up>  (23) 
0.0

>  <CEETOX_H295R_CORTIC_dn>  (23) 
0.0

>  <CEETOX_H295R_CORTIC_up>  (23) 
0.0

>  <CEETOX_H295R_CORTISOL_dn>  (23) 
1.0

>  <CEETOX_H295R_CORTISOL_up>  (23) 
0.0

>  <CEETOX_H295R_DOC_dn>  (23) 
1.0

>  <CEETOX_H295R_DOC_up>  (23) 
0.0

>  <CEETOX_H295R_ESTRADIOL_dn>  (23) 
1.0

>  <CEETOX_H295R_ESTRADIOL_up>  (23) 
0.0

>  <CEETOX_H295R_ESTRONE_dn>  (23) 
0.0

>  <CEETOX_H295R_ESTRONE_up>  (23) 
0.0

>  <CEETOX_H295R_MTT_cell_viability_dn>  (23) 
0.0

>  <CEETOX_H295R_MTT_cell_viability_up>  (23) 
0.0

>  <CEETOX_H295R_OHPREG_dn>  (23) 
0.0

>  <CEETOX_H295R_OHPREG_up>  (23) 
0.0

>  <CEETOX_H295R_OHPROG_dn>  (23) 
0.0

>  <CEETOX_H295R_OHPROG_up>  (23) 
1.0

>  <CEETOX_H295R_PROG_dn>  (23) 
0.0

>  <CEETOX_H295R_PROG_up>  (23) 
1.0

>  <CEETOX_H295R_TESTO_dn>  (23) 
1.0

>  <CEETOX_H295R_TESTO_up>  (23) 
0.0

>  <NCCT_HEK293T_CellTiterGLO>  (23) 
0.0

>  <NCCT_QuantiLum_inhib_2_dn>  (23) 
0.0

>  <NCCT_TPO_AUR_dn>  (23) 
1.0

>  <NVS_ADME_hCYP19A1>  (23) 
1.0

>  <NVS_ADME_hCYP19A1_Activator>  (23) 
0.0

>  <NVS_GPCR_rTRH>  (23) 
0.0

>  <NVS_MP_rPBR>  (23) 
1.0

>  <NVS_NR_hPPARg>  (23) 
1.0

>  <OT_AR_ARSRC1_0480>  (23) 
0.0

>  <OT_AR_ARSRC1_0960>  (23) 
0.0

>  <OT_ER_ERaERa_0480>  (23) 
1.0

>  <OT_ER_ERaERa_1440>  (23) 
1.0

>  <OT_ER_ERaERb_0480>  (23) 
1.0

>  <OT_ER_ERbERb_0480>  (23) 
1.0

>  <OT_ER_ERbERb_1440>  (23) 
1.0

>  <OT_ERa_EREGFP_0480>  (23) 
1.0

>  <TOX21_AP1_BLA_Agonist_ch1>  (23) 
0.0

>  <TOX21_AP1_BLA_Agonist_ch2>  (23) 
0.0

>  <TOX21_AP1_BLA_Agonist_ratio>  (23) 
0.0

>  <TOX21_AP1_BLA_Agonist_viability>  (23) 
0.0

>  <TOX21_ARE_BLA_Agonist_ch1>  (23) 
0.0

>  <TOX21_ARE_BLA_Agonist_ch2>  (23) 
0.0

>  <TOX21_ARE_BLA_agonist_viability>  (23) 
0.0

>  <TOX21_AR_BLA_Agonist_ch1>  (23) 
0.0

>  <TOX21_AR_BLA_Agonist_ch2>  (23) 
0.0

>  <TOX21_AR_BLA_Agonist_ratio>  (23) 
0.0

>  <TOX21_AR_BLA_Antagonist_ch1>  (23) 
1.0

>  <TOX21_AR_BLA_Antagonist_ch2>  (23) 
0.0

>  <TOX21_AR_BLA_Antagonist_ratio>  (23) 
1.0

>  <TOX21_AR_BLA_Antagonist_viability>  (23) 
0.0

>  <TOX21_AR_LUC_MDAKB2_Agonist>  (23) 
0.0

>  <TOX21_AR_LUC_MDAKB2_Agonist_3uM_Nilutamide>  (23) 
0.0

>  <TOX21_AR_LUC_MDAKB2_Agonist_3uM_Nilutamide_viability>  (23) 
0.0

>  <TOX21_AR_LUC_MDAKB2_Antagonist_0.5nM_R1881>  (23) 
0.0

>  <TOX21_AR_LUC_MDAKB2_Antagonist_0.5nM_R1881_viability>  (23) 
0.0

>  <TOX21_AR_LUC_MDAKB2_Antagonist_10nM_R1881>  (23) 
0.0

>  <TOX21_AR_LUC_MDAKB2_Antagonist_10nM_R1881_viability>  (23) 
0.0

>  <TOX21_AhR_LUC_Agonist>  (23) 
0.0

>  <TOX21_Aromatase_Inhibition>  (23) 
0.0

>  <TOX21_Aromatase_Inhibition_viability>  (23) 
0.0

>  <TOX21_AutoFluor_HEK293_Cell_blue>  (23) 
0.0

>  <TOX21_AutoFluor_HEK293_Cell_green>  (23) 
0.0

>  <TOX21_AutoFluor_HEK293_Cell_red>  (23) 
0.0

>  <TOX21_AutoFluor_HEK293_Media_blue>  (23) 
0.0

>  <TOX21_AutoFluor_HEK293_Media_green>  (23) 
0.0

>  <TOX21_AutoFluor_HEK293_Media_red>  (23) 
0.0

>  <TOX21_AutoFluor_HEPG2_Cell_blue>  (23) 
0.0

>  <TOX21_AutoFluor_HEPG2_Cell_green>  (23) 
0.0

>  <TOX21_AutoFluor_HEPG2_Cell_red>  (23) 
0.0

>  <TOX21_AutoFluor_HEPG2_Media_blue>  (23) 
0.0

>  <TOX21_AutoFluor_HEPG2_Media_green>  (23) 
0.0

>  <TOX21_AutoFluor_HEPG2_Media_red>  (23) 
0.0

>  <TOX21_CAR_Agonist>  (23) 
0.0

>  <TOX21_CAR_Antagonist>  (23) 
0.0

>  <TOX21_CAR_Antagonist_viability>  (23) 
0.0

>  <TOX21_CASP3_CHO>  (23) 
0.0

>  <TOX21_CASP3_CHO_viability>  (23) 
0.0

>  <TOX21_CASP3_HEPG2>  (23) 
0.0

>  <TOX21_CASP3_HEPG2_viability>  (23) 
0.0

>  <TOX21_DT40>  (23) 
0.0

>  <TOX21_DT40_100>  (23) 
0.0

>  <TOX21_DT40_657>  (23) 
0.0

>  <TOX21_ELG1_LUC_Agonist>  (23) 
0.0

>  <TOX21_ELG1_LUC_Agonist_viability>  (23) 
0.0

>  <TOX21_ERR_Agonist>  (23) 
0.0

>  <TOX21_ERR_Antagonist>  (23) 
0.0

>  <TOX21_ERa_BLA_Agonist_ch1>  (23) 
1.0

>  <TOX21_ERa_BLA_Agonist_ch2>  (23) 
1.0

>  <TOX21_ERa_BLA_Agonist_ratio>  (23) 
1.0

>  <TOX21_ERa_BLA_Antagonist_ch1>  (23) 
0.0

>  <TOX21_ERa_BLA_Antagonist_ch2>  (23) 
0.0

>  <TOX21_ERa_BLA_Antagonist_ratio>  (23) 
1.0

>  <TOX21_ERa_BLA_Antagonist_viability>  (23) 
0.0

>  <TOX21_ERa_LUC_VM7_Agonist>  (23) 
1.0

>  <TOX21_ERa_LUC_VM7_Agonist_10nM_ICI182780>  (23) 
1.0

>  <TOX21_ERa_LUC_VM7_Agonist_10nM_ICI182780_viability>  (23) 
0.0

>  <TOX21_ERa_LUC_VM7_Antagonist_0.1nM_E2>  (23) 
0.0

>  <TOX21_ERa_LUC_VM7_Antagonist_0.1nM_E2_viability>  (23) 
0.0

>  <TOX21_ERa_LUC_VM7_Antagonist_0.5nM_E2>  (23) 
0.0

>  <TOX21_ERa_LUC_VM7_Antagonist_0.5nM_E2_viability>  (23) 
0.0

>  <TOX21_ERb_BLA_Agonist_ch1>  (23) 
0.0

>  <TOX21_ERb_BLA_Agonist_ch2>  (23) 
1.0

>  <TOX21_ERb_BLA_Agonist_ratio>  (23) 
1.0

>  <TOX21_ERb_BLA_Agonist_viability>  (23) 
0.0

>  <TOX21_ERb_BLA_Antagonist_ch1>  (23) 
0.0

>  <TOX21_ERb_BLA_Antagonist_ch2>  (23) 
0.0

>  <TOX21_ERb_BLA_Antagonist_ratio>  (23) 
0.0

>  <TOX21_ERb_BLA_Antagonist_viability>  (23) 
0.0

>  <TOX21_ESRE_BLA_ch1>  (23) 
0.0

>  <TOX21_ESRE_BLA_ch2>  (23) 
0.0

>  <TOX21_ESRE_BLA_ratio>  (23) 
0.0

>  <TOX21_ESRE_BLA_viability>  (23) 
0.0

>  <TOX21_FXR_BLA_Antagonist_ch1>  (23) 
0.0

>  <TOX21_FXR_BLA_Antagonist_ch2>  (23) 
0.0

>  <TOX21_FXR_BLA_agonist_ch1>  (23) 
0.0

>  <TOX21_FXR_BLA_agonist_ch2>  (23) 
0.0

>  <TOX21_FXR_BLA_agonist_ratio>  (23) 
0.0

>  <TOX21_FXR_BLA_agonist_viability>  (23) 
0.0

>  <TOX21_FXR_BLA_antagonist_ratio>  (23) 
0.0

>  <TOX21_FXR_BLA_antagonist_viability>  (23) 
0.0

>  <TOX21_GR_BLA_Agonist_ch1>  (23) 
0.0

>  <TOX21_GR_BLA_Agonist_ch2>  (23) 
0.0

>  <TOX21_GR_BLA_Agonist_ratio>  (23) 
0.0

>  <TOX21_GR_BLA_Antagonist_ch1>  (23) 
0.0

>  <TOX21_GR_BLA_Antagonist_ch2>  (23) 
0.0

>  <TOX21_GR_BLA_Antagonist_ratio>  (23) 
0.0

>  <TOX21_GR_BLA_Antagonist_viability>  (23) 
0.0

>  <TOX21_H2AX_HTRF_CHO_Agonist_ch1>  (23) 
0.0

>  <TOX21_H2AX_HTRF_CHO_Agonist_ch2>  (23) 
0.0

>  <TOX21_H2AX_HTRF_CHO_Agonist_ratio>  (23) 
0.0

>  <TOX21_H2AX_HTRF_CHO_viability>  (23) 
0.0

>  <TOX21_HDAC_Inhibition>  (23) 
0.0

>  <TOX21_HDAC_Inhibition_viability>  (23) 
0.0

>  <TOX21_HRE_BLA_Agonist_ch1>  (23) 
0.0

>  <TOX21_HRE_BLA_Agonist_ch2>  (23) 
0.0

>  <TOX21_HRE_BLA_Agonist_ratio>  (23) 
0.0

>  <TOX21_HRE_BLA_Agonist_viability>  (23) 
0.0

>  <TOX21_HSE_BLA_agonist_ch1>  (23) 
0.0

>  <TOX21_HSE_BLA_agonist_ch2>  (23) 
0.0

>  <TOX21_HSE_BLA_agonist_ratio>  (23) 
0.0

>  <TOX21_HSE_BLA_agonist_viability>  (23) 
0.0

>  <TOX21_LUC_Biochem>  (23) 
0.0

>  <TOX21_MMP_fitc>  (23) 
1.0

>  <TOX21_MMP_ratio_down>  (23) 
1.0

>  <TOX21_MMP_ratio_up>  (23) 
0.0

>  <TOX21_MMP_rhodamine>  (23) 
0.0

>  <TOX21_MMP_viability>  (23) 
0.0

>  <TOX21_NFkB_BLA_agonist_ch1>  (23) 
0.0

>  <TOX21_NFkB_BLA_agonist_ch2>  (23) 
0.0

>  <TOX21_NFkB_BLA_agonist_ratio>  (23) 
0.0

>  <TOX21_NFkB_BLA_agonist_viability>  (23) 
0.0

>  <TOX21_PGC_ERR_Agonist>  (23) 
0.0

>  <TOX21_PGC_ERR_Antagonist>  (23) 
0.0

>  <TOX21_PGC_ERR_viability>  (23) 
0.0

>  <TOX21_PPARd_BLA_Agonist_viability>  (23) 
0.0

>  <TOX21_PPARd_BLA_Antagonist_ch1>  (23) 
0.0

>  <TOX21_PPARd_BLA_Antagonist_ch2>  (23) 
0.0

>  <TOX21_PPARd_BLA_agonist_ch1>  (23) 
0.0

>  <TOX21_PPARd_BLA_agonist_ch2>  (23) 
0.0

>  <TOX21_PPARd_BLA_agonist_ratio>  (23) 
0.0

>  <TOX21_PPARd_BLA_antagonist_ratio>  (23) 
0.0

>  <TOX21_PPARd_BLA_antagonist_viability>  (23) 
0.0

>  <TOX21_PPARg_BLA_Agonist_ch1>  (23) 
0.0

>  <TOX21_PPARg_BLA_Agonist_ch2>  (23) 
0.0

>  <TOX21_PPARg_BLA_Agonist_ratio>  (23) 
0.0

>  <TOX21_PPARg_BLA_Antagonist_ch1>  (23) 
0.0

>  <TOX21_PPARg_BLA_Antagonist_ch2>  (23) 
0.0

>  <TOX21_PPARg_BLA_antagonist_ratio>  (23) 
0.0

>  <TOX21_PPARg_BLA_antagonist_viability>  (23) 
0.0

>  <TOX21_PR_BLA_Agonist_ch1>  (23) 
0.0

>  <TOX21_PR_BLA_Agonist_ch2>  (23) 
0.0

>  <TOX21_PR_BLA_Agonist_ratio>  (23) 
0.0

>  <TOX21_PR_BLA_Antagonist_ch1>  (23) 
0.0

>  <TOX21_PR_BLA_Antagonist_ch2>  (23) 
0.0

>  <TOX21_PR_BLA_Antagonist_ratio>  (23) 
0.0

>  <TOX21_PR_BLA_Antagonist_viability>  (23) 
0.0

>  <TOX21_PXR_Agonist>  (23) 
0.0

>  <TOX21_PXR_viability>  (23) 
0.0

>  <TOX21_RAR_LUC_Agonist>  (23) 
0.0

>  <TOX21_RAR_LUC_Agonist_viability>  (23) 
0.0

>  <TOX21_RAR_LUC_Antagonist_viability>  (23) 
0.0

>  <TOX21_RORg_LUC_CHO_Antagonist>  (23) 
0.0

>  <TOX21_RORg_LUC_CHO_Antagonist_viability>  (23) 
0.0

>  <TOX21_RT_HEK293_FLO_00hr_viability>  (23) 
0.0

>  <TOX21_RT_HEK293_FLO_08hr_viability>  (23) 
0.0

>  <TOX21_RT_HEK293_FLO_16hr_viability>  (23) 
0.0

>  <TOX21_RT_HEK293_FLO_24hr_viability>  (23) 
0.0

>  <TOX21_RT_HEK293_FLO_32hr_viability>  (23) 
0.0

>  <TOX21_RT_HEK293_FLO_40hr_viability>  (23) 
0.0

>  <TOX21_RT_HEK293_GLO_00hr_viability>  (23) 
0.0

>  <TOX21_RT_HEK293_GLO_08hr_viability>  (23) 
0.0

>  <TOX21_RT_HEK293_GLO_16hr_viability>  (23) 
1.0

>  <TOX21_RT_HEK293_GLO_24hr_viability>  (23) 
1.0

>  <TOX21_RT_HEK293_GLO_32hr_viability>  (23) 
1.0

>  <TOX21_RT_HEK293_GLO_40hr_viability>  (23) 
1.0

>  <TOX21_RT_HEPG2_FLO_00hr_ctrl_viability>  (23) 
0.0

>  <TOX21_RT_HEPG2_FLO_08hr_viability>  (23) 
0.0

>  <TOX21_RT_HEPG2_FLO_16hr_ctrl_viability>  (23) 
0.0

>  <TOX21_RT_HEPG2_FLO_24hr_viability>  (23) 
0.0

>  <TOX21_RT_HEPG2_FLO_32hr_ctrl_viability>  (23) 
0.0

>  <TOX21_RT_HEPG2_GLO_00hr_ctrl_viability>  (23) 
0.0

>  <TOX21_RT_HEPG2_GLO_08hr_ctrl_viability>  (23) 
0.0

>  <TOX21_RT_HEPG2_GLO_16hr_ctrl_viability>  (23) 
0.0

>  <TOX21_RT_HEPG2_GLO_24hr_ctrl_viability>  (23) 
0.0

>  <TOX21_RT_HEPG2_GLO_32hr_ctrl_viability>  (23) 
0.0

>  <TOX21_RT_HEPG2_GLO_40hr_viability>  (23) 
0.0

>  <TOX21_RXR_BLA_Agonist_ch1>  (23) 
0.0

>  <TOX21_RXR_BLA_Agonist_ch2>  (23) 
0.0

>  <TOX21_RXR_BLA_Agonist_ratio>  (23) 
0.0

>  <TOX21_RXR_BLA_Agonist_viability>  (23) 
0.0

>  <TOX21_SBE_BLA_Agonist_ch1>  (23) 
0.0

>  <TOX21_SBE_BLA_Agonist_ch2>  (23) 
0.0

>  <TOX21_SBE_BLA_Agonist_ratio>  (23) 
0.0

>  <TOX21_SBE_BLA_Agonist_viability>  (23) 
0.0

>  <TOX21_SBE_BLA_Antagonist_ch1>  (23) 
0.0

>  <TOX21_SBE_BLA_Antagonist_ch2>  (23) 
0.0

>  <TOX21_SBE_BLA_Antagonist_ratio>  (23) 
0.0

>  <TOX21_SBE_BLA_Antagonist_viability>  (23) 
0.0

>  <TOX21_SSH_3T3_GLI3_Agonist>  (23) 
0.0

>  <TOX21_SSH_3T3_GLI3_Agonist_viability>  (23) 
0.0

>  <TOX21_SSH_3T3_GLI3_Antagonist>  (23) 
1.0

>  <TOX21_SSH_3T3_GLI3_Antagonist_viability>  (23) 
0.0

>  <TOX21_TRHR_HEK293_Agonist>  (23) 
0.0

>  <TOX21_TRHR_HEK293_Antagonist>  (23) 
0.0

>  <TOX21_TR_LUC_GH3_Agonist>  (23) 
0.0

>  <TOX21_TR_LUC_GH3_Antagonist>  (23) 
0.0

>  <TOX21_TR_LUC_GH3_Antagonist_viability>  (23) 
0.0

>  <TOX21_TSHR_Agonist_ch2>  (23) 
0.0

>  <TOX21_TSHR_Antagonist_ch2>  (23) 
0.0

>  <TOX21_TSHR_Antagonist_ratio>  (23) 
0.0

>  <TOX21_TSHR_HTRF_Agonist_ch1>  (23) 
0.0

>  <TOX21_TSHR_HTRF_Antagonist_ch1>  (23) 
0.0

>  <TOX21_TSHR_wt_HTRF_ch1>  (23) 
0.0

>  <TOX21_TSHR_wt_ch2>  (23) 
0.0

>  <TOX21_TSHR_wt_ratio>  (23) 
0.0

>  <TOX21_VDR_BLA_Agonist_viability>  (23) 
0.0

>  <TOX21_VDR_BLA_Antagonist_ch1>  (23) 
0.0

>  <TOX21_VDR_BLA_Antagonist_ch2>  (23) 
0.0

>  <TOX21_VDR_BLA_agonist_ch1>  (23) 
0.0

>  <TOX21_VDR_BLA_agonist_ch2>  (23) 
0.0

>  <TOX21_VDR_BLA_agonist_ratio>  (23) 
0.0

>  <TOX21_VDR_BLA_antagonist_ratio>  (23) 
0.0

>  <TOX21_VDR_BLA_antagonist_viability>  (23) 
0.0

>  <TOX21_p53_BLA_p1_ch1>  (23) 
0.0

>  <TOX21_p53_BLA_p1_ch2>  (23) 
0.0

>  <TOX21_p53_BLA_p1_ratio>  (23) 
0.0

>  <TOX21_p53_BLA_p1_viability>  (23) 
0.0

>  <TOX21_p53_BLA_p2_ch1>  (23) 
0.0

>  <TOX21_p53_BLA_p2_ch2>  (23) 
0.0

>  <TOX21_p53_BLA_p2_ratio>  (23) 
0.0

>  <TOX21_p53_BLA_p2_viability>  (23) 
0.0

>  <TOX21_p53_BLA_p3_ch1>  (23) 
0.0

>  <TOX21_p53_BLA_p3_ch2>  (23) 
0.0

>  <TOX21_p53_BLA_p3_ratio>  (23) 
0.0

>  <TOX21_p53_BLA_p4_ch1>  (23) 
0.0

>  <TOX21_p53_BLA_p4_ch2>  (23) 
0.0

>  <TOX21_p53_BLA_p4_ratio>  (23) 
0.0

>  <TOX21_p53_BLA_p4_viability>  (23) 
0.0

>  <TOX21_p53_BLA_p5_ch1>  (23) 
0.0

>  <TOX21_p53_BLA_p5_ch2>  (23) 
0.0

>  <TOX21_p53_BLA_p5_ratio>  (23) 
0.0

>  <TOX21_p53_BLA_p5_viability>  (23) 
0.0

>  <UPITT_HCI_U2OS_AR_TIF2_Nucleoli_Agonist>  (23) 
0.0

>  <UPITT_HCI_U2OS_AR_TIF2_Nucleoli_Antagonist>  (23) 
0.0

>  <UPITT_HCI_U2OS_AR_TIF2_Nucleoli_Cytoplasm_Ratio_Agonist>  (23) 
0.0

>  <UPITT_HCI_U2OS_AR_TIF2_Nucleoli_Cytoplasm_Ratio_Antagonist>  (23) 
0.0

>  <NVS_NR_mERa>  (23) 
0

$$$$

     RDKit          3D

 21 22  0  0  0  0  0  0  0  0999 V2000
    0.0000    0.0000    0.0000 C   0  0  0  0  0  0  0  0  0  0  0  0
    0.0000    0.0000    0.0000 O   0  0  0  0  0  0  0  0  0  0  0  0
    0.0000    0.0000    0.0000 C   0  0  0  0  0  0  0  0  0  0  0  0
    0.0000    0.0000    0.0000 C   0  0  0  0  0  0  0  0  0  0  0  0
    0.0000    0.0000    0.0000 C   0  0  0  0  0  0  0  0  0  0  0  0
    0.0000    0.0000    0.0000 C   0  0  0  0  0  0  0  0  0  0  0  0
    0.0000    0.0000    0.0000 C   0  0  0  0  0  0  0  0  0  0  0  0
    0.0000    0.0000    0.0000 C   0  0  0  0  0  0  0  0  0  0  0  0
    0.0000    0.0000    0.0000 C   0  0  0  0  0  0  0  0  0  0  0  0
    0.0000    0.0000    0.0000 C   0  0  0  0  0  0  0  0  0  0  0  0
    0.0000    0.0000    0.0000 C   0  0  0  0  0  0  0  0  0  0  0  0
    0.0000    0.0000    0.0000 C   0  0  0  0  0  0  0  0  0  0  0  0
    0.0000    0.0000    0.0000 C   0  0  0  0  0  0  0  0  0  0  0  0
    0.0000    0.0000    0.0000 C   0  0  0  0  0  0  0  0  0  0  0  0
    0.0000    0.0000    0.0000 C   0  0  0  0  0  0  0  0  0  0  0  0
    0.0000    0.0000    0.0000 O   0  0  0  0  0  0  0  0  0  0  0  0
    0.0000    0.0000    0.0000 C   0  0  0  0  0  0  0  0  0  0  0  0
    0.0000    0.0000    0.0000 C   0  0  0  0  0  0  0  0  0  0  0  0
    0.0000    0.0000    0.0000 Cl  0  0  0  0  0  0  0  0  0  0  0  0
    0.0000    0.0000    0.0000 Cl  0  0  0  0  0  0  0  0  0  0  0  0
    0.0000    0.0000    0.0000 Cl  0  0  0  0  0  0  0  0  0  0  0  0
  1  2  1  0
  2  3  1  0
  3  4  2  0
  4  5  1  0
  5  6  2  0
  6  7  1  0
  7  8  2  0
  6  9  1  0
  9 10  1  0
 10 11  2  0
 11 12  1  0
 12 13  2  0
 13 14  1  0
 14 15  2  0
 13 16  1  0
 16 17  1  0
  9 18  1  0
 18 19  1  0
 18 20  1  0
 18 21  1  0
  8  3  1  0
 15 10  1  0
M  END
>  <CASRN>  (24) 
72-43-5

>  <Name>  (24) 
Methoxychlor

>  <Active>  (24) 
18

>  <Inactive>  (24) 
1

>  <Bioactivity>  (24) 
Active

>  <Min LEL>  (24) 
20.0

>  <Max HDT>  (24) 
200.0

>  <Class>  (24) 
1

>  <Code>  (24) 
C72435

>  <NVS_NR_hER>  (24) 
1.0

>  <NVS_NR_cAR>  (24) 
0.0

>  <NVS_NR_hAR>  (24) 
0.0

>  <NVS_NR_hGR>  (24) 
1.0

>  <NVS_NR_hPR>  (24) 
0.0

>  <NVS_NR_rAR>  (24) 
0.0

>  <OT_ER_ERaERb_1440>  (24) 
1.0

>  <OT_FXR_FXRSRC1_0480>  (24) 
1.0

>  <OT_PPARg_PPARgSRC1_1440>  (24) 
0.0

>  <OT_FXR_FXRSRC1_1440>  (24) 
1.0

>  <OT_NURR1_NURR1RXRa_0480>  (24) 
1.0

>  <OT_NURR1_NURR1RXRa_1440>  (24) 
0.0

>  <OT_PPARg_PPARgSRC1_0480>  (24) 
0.0

>  <OT_AR_ARELUC_AG_1440>  (24) 
0.0

>  <OT_ERa_EREGFP_0120>  (24) 
1.0

>  <BSK_3C_HLADR_down>  (24) 
1.0

>  <BSK_3C_Vis_down>  (24) 
1.0

>  <BSK_3C_uPAR_down>  (24) 
1.0

>  <ATG_CAR_TRANS_up>  (24) 
0.0

>  <ATG_E2F_CIS_dn>  (24) 
0.0

>  <ATG_EGR_CIS_up>  (24) 
0.0

>  <ATG_ERa_TRANS_dn>  (24) 
0.0

>  <ATG_ERa_TRANS_up>  (24) 
1.0

>  <ATG_FXR_TRANS_dn>  (24) 
0.0

>  <ATG_GLI_CIS_dn>  (24) 
0.0

>  <ATG_GRE_CIS_up>  (24) 
0.0

>  <ATG_LXRa_TRANS_dn>  (24) 
0.0

>  <ATG_LXRa_TRANS_up>  (24) 
0.0

>  <ATG_NRF1_CIS_up>  (24) 
0.0

>  <ATG_NURR1_TRANS_up>  (24) 
0.0

>  <ATG_Sox_CIS_dn>  (24) 
0.0

>  <ATG_Sox_CIS_up>  (24) 
0.0

>  <ATG_Sp1_CIS_up>  (24) 
0.0

>  <ATG_TGFb_CIS_up>  (24) 
0.0

>  <TOX21_ARE_BLA_agonist_ratio>  (24) 
0.0

>  <TOX21_RAR_LUC_Antagonist>  (24) 
0.0

>  <ATG_LXRb_TRANS_dn>  (24) 
0.0

>  <ATG_CAR_TRANS_dn>  (24) 
0.0

>  <ATG_BRE_CIS_dn>  (24) 
0.0

>  <ATG_E2F_CIS_up>  (24) 
0.0

>  <TOX21_TSHR_Agonist_ratio>  (24) 
0.0

>  <ACEA_ER_80hr>  (24) 
1.0

>  <TOX21_CAR_Agonist_viabillity>  (24) 
0.0

>  <TOX21_PR_BLA_Agonist_viability>  (24) 
0.0

>  <TOX21_RT_HEPG2_FLO_40hr_ctrl_viability>  (24) 
0.0

>  <TOX21_AhR_LUC_Agonist_viability>  (24) 
0.0

>  <TOX21_ERR_viability>  (24) 
0.0

>  <TOX21_p53_BLA_p3_viability>  (24) 
0.0

>  <NVS_NR_bER>  (24) 
0.0

>  <ACEA_AR_agonist_80hr>  (24) 
0.0

>  <ACEA_AR_agonist_AUC_viability>  (24) 
1.0

>  <ACEA_AR_antagonist_80hr>  (24) 
1.0

>  <ACEA_AR_antagonist_AUC_viability>  (24) 
1.0

>  <ACEA_ER_AUC_viability>  (24) 
0.0

>  <APR_HepG2_CellCycleArrest_1h_dn>  (24) 
0.0

>  <APR_HepG2_CellCycleArrest_1h_up>  (24) 
0.0

>  <APR_HepG2_CellCycleArrest_24h_dn>  (24) 
0.0

>  <APR_HepG2_CellCycleArrest_24h_up>  (24) 
0.0

>  <APR_HepG2_CellCycleArrest_72h_dn>  (24) 
0.0

>  <APR_HepG2_CellCycleArrest_72h_up>  (24) 
0.0

>  <APR_HepG2_CellLoss_1h_dn>  (24) 
0.0

>  <APR_HepG2_CellLoss_1h_up>  (24) 
0.0

>  <APR_HepG2_CellLoss_24h_dn>  (24) 
1.0

>  <APR_HepG2_CellLoss_24h_up>  (24) 
0.0

>  <APR_HepG2_CellLoss_72h_dn>  (24) 
1.0

>  <APR_HepG2_CellLoss_72h_up>  (24) 
0.0

>  <APR_HepG2_MicrotubuleCSK_1h_dn>  (24) 
0.0

>  <APR_HepG2_MicrotubuleCSK_1h_up>  (24) 
0.0

>  <APR_HepG2_MicrotubuleCSK_24h_dn>  (24) 
0.0

>  <APR_HepG2_MicrotubuleCSK_24h_up>  (24) 
1.0

>  <APR_HepG2_MicrotubuleCSK_72h_dn>  (24) 
0.0

>  <APR_HepG2_MicrotubuleCSK_72h_up>  (24) 
1.0

>  <APR_HepG2_MitoMass_1h_dn>  (24) 
0.0

>  <APR_HepG2_MitoMass_1h_up>  (24) 
0.0

>  <APR_HepG2_MitoMass_24h_dn>  (24) 
0.0

>  <APR_HepG2_MitoMass_24h_up>  (24) 
0.0

>  <APR_HepG2_MitoMass_72h_dn>  (24) 
0.0

>  <APR_HepG2_MitoMass_72h_up>  (24) 
0.0

>  <APR_HepG2_MitoMembPot_1h_dn>  (24) 
1.0

>  <APR_HepG2_MitoMembPot_1h_up>  (24) 
0.0

>  <APR_HepG2_MitoMembPot_24h_dn>  (24) 
0.0

>  <APR_HepG2_MitoMembPot_24h_up>  (24) 
0.0

>  <APR_HepG2_MitoMembPot_72h_dn>  (24) 
0.0

>  <APR_HepG2_MitoMembPot_72h_up>  (24) 
0.0

>  <APR_HepG2_MitoticArrest_1h_dn>  (24) 
0.0

>  <APR_HepG2_MitoticArrest_1h_up>  (24) 
0.0

>  <APR_HepG2_MitoticArrest_24h_dn>  (24) 
0.0

>  <APR_HepG2_MitoticArrest_24h_up>  (24) 
0.0

>  <APR_HepG2_MitoticArrest_72h_dn>  (24) 
0.0

>  <APR_HepG2_MitoticArrest_72h_up>  (24) 
1.0

>  <APR_HepG2_NuclearSize_1h_dn>  (24) 
0.0

>  <APR_HepG2_NuclearSize_1h_up>  (24) 
0.0

>  <APR_HepG2_NuclearSize_24h_dn>  (24) 
0.0

>  <APR_HepG2_NuclearSize_24h_up>  (24) 
0.0

>  <APR_HepG2_NuclearSize_72h_dn>  (24) 
0.0

>  <APR_HepG2_NuclearSize_72h_up>  (24) 
0.0

>  <APR_HepG2_OxidativeStress_1h_dn>  (24) 
0.0

>  <APR_HepG2_OxidativeStress_1h_up>  (24) 
0.0

>  <APR_HepG2_OxidativeStress_24h_dn>  (24) 
0.0

>  <APR_HepG2_OxidativeStress_24h_up>  (24) 
0.0

>  <APR_HepG2_OxidativeStress_72h_dn>  (24) 
0.0

>  <APR_HepG2_OxidativeStress_72h_up>  (24) 
1.0

>  <APR_HepG2_StressKinase_1h_dn>  (24) 
0.0

>  <APR_HepG2_StressKinase_1h_up>  (24) 
0.0

>  <APR_HepG2_StressKinase_24h_dn>  (24) 
0.0

>  <APR_HepG2_StressKinase_24h_up>  (24) 
0.0

>  <APR_HepG2_StressKinase_72h_dn>  (24) 
0.0

>  <APR_HepG2_StressKinase_72h_up>  (24) 
0.0

>  <APR_HepG2_p53Act_1h_dn>  (24) 
0.0

>  <APR_HepG2_p53Act_1h_up>  (24) 
0.0

>  <APR_HepG2_p53Act_24h_dn>  (24) 
0.0

>  <APR_HepG2_p53Act_24h_up>  (24) 
0.0

>  <APR_HepG2_p53Act_72h_dn>  (24) 
0.0

>  <APR_HepG2_p53Act_72h_up>  (24) 
1.0

>  <APR_Hepat_Apoptosis_1hr_dn>  (24) 
0.0

>  <APR_Hepat_Apoptosis_1hr_up>  (24) 
0.0

>  <APR_Hepat_Apoptosis_24hr_dn>  (24) 
0.0

>  <APR_Hepat_Apoptosis_24hr_up>  (24) 
0.0

>  <APR_Hepat_Apoptosis_48hr_dn>  (24) 
0.0

>  <APR_Hepat_Apoptosis_48hr_up>  (24) 
0.0

>  <APR_Hepat_CellLoss_1hr_dn>  (24) 
0.0

>  <APR_Hepat_CellLoss_1hr_up>  (24) 
0.0

>  <APR_Hepat_CellLoss_24hr_dn>  (24) 
0.0

>  <APR_Hepat_CellLoss_24hr_up>  (24) 
0.0

>  <APR_Hepat_CellLoss_48hr_dn>  (24) 
0.0

>  <APR_Hepat_CellLoss_48hr_up>  (24) 
0.0

>  <APR_Hepat_DNADamage_1hr_dn>  (24) 
0.0

>  <APR_Hepat_DNADamage_1hr_up>  (24) 
0.0

>  <APR_Hepat_DNADamage_24hr_dn>  (24) 
0.0

>  <APR_Hepat_DNADamage_24hr_up>  (24) 
0.0

>  <APR_Hepat_DNADamage_48hr_dn>  (24) 
0.0

>  <APR_Hepat_DNADamage_48hr_up>  (24) 
0.0

>  <APR_Hepat_DNATexture_1hr_dn>  (24) 
0.0

>  <APR_Hepat_DNATexture_1hr_up>  (24) 
0.0

>  <APR_Hepat_DNATexture_24hr_dn>  (24) 
0.0

>  <APR_Hepat_DNATexture_24hr_up>  (24) 
1.0

>  <APR_Hepat_DNATexture_48hr_dn>  (24) 
0.0

>  <APR_Hepat_DNATexture_48hr_up>  (24) 
1.0

>  <APR_Hepat_LysosomalMass_1hr_dn>  (24) 
0.0

>  <APR_Hepat_LysosomalMass_1hr_up>  (24) 
0.0

>  <APR_Hepat_LysosomalMass_24hr_dn>  (24) 
0.0

>  <APR_Hepat_LysosomalMass_24hr_up>  (24) 
0.0

>  <APR_Hepat_LysosomalMass_48hr_dn>  (24) 
0.0

>  <APR_Hepat_LysosomalMass_48hr_up>  (24) 
0.0

>  <APR_Hepat_MitoFxnI_1hr_dn>  (24) 
0.0

>  <APR_Hepat_MitoFxnI_1hr_up>  (24) 
0.0

>  <APR_Hepat_MitoFxnI_24hr_dn>  (24) 
0.0

>  <APR_Hepat_MitoFxnI_24hr_up>  (24) 
0.0

>  <APR_Hepat_MitoFxnI_48hr_dn>  (24) 
0.0

>  <APR_Hepat_MitoFxnI_48hr_up>  (24) 
0.0

>  <APR_Hepat_NuclearSize_1hr_dn>  (24) 
0.0

>  <APR_Hepat_NuclearSize_1hr_up>  (24) 
0.0

>  <APR_Hepat_NuclearSize_24hr_dn>  (24) 
0.0

>  <APR_Hepat_NuclearSize_24hr_up>  (24) 
0.0

>  <APR_Hepat_NuclearSize_48hr_dn>  (24) 
0.0

>  <APR_Hepat_NuclearSize_48hr_up>  (24) 
0.0

>  <APR_Hepat_Steatosis_1hr_dn>  (24) 
0.0

>  <APR_Hepat_Steatosis_1hr_up>  (24) 
0.0

>  <APR_Hepat_Steatosis_24hr_dn>  (24) 
0.0

>  <APR_Hepat_Steatosis_24hr_up>  (24) 
0.0

>  <APR_Hepat_Steatosis_48hr_dn>  (24) 
0.0

>  <APR_Hepat_Steatosis_48hr_up>  (24) 
0.0

>  <ATG_AP_1_CIS_dn>  (24) 
0.0

>  <ATG_AP_1_CIS_up>  (24) 
1.0

>  <ATG_AP_2_CIS_dn>  (24) 
0.0

>  <ATG_AP_2_CIS_up>  (24) 
0.0

>  <ATG_AR_TRANS_dn>  (24) 
0.0

>  <ATG_AR_TRANS_up>  (24) 
0.0

>  <ATG_Ahr_CIS_dn>  (24) 
0.0

>  <ATG_Ahr_CIS_up>  (24) 
0.0

>  <ATG_BRE_CIS_up>  (24) 
0.0

>  <ATG_CMV_CIS_dn>  (24) 
0.0

>  <ATG_CMV_CIS_up>  (24) 
0.0

>  <ATG_CRE_CIS_dn>  (24) 
0.0

>  <ATG_CRE_CIS_up>  (24) 
0.0

>  <ATG_C_EBP_CIS_dn>  (24) 
0.0

>  <ATG_C_EBP_CIS_up>  (24) 
0.0

>  <ATG_DR4_LXR_CIS_dn>  (24) 
1.0

>  <ATG_DR4_LXR_CIS_up>  (24) 
0.0

>  <ATG_DR5_CIS_dn>  (24) 
0.0

>  <ATG_DR5_CIS_up>  (24) 
0.0

>  <ATG_EGR_CIS_dn>  (24) 
0.0

>  <ATG_ERE_CIS_dn>  (24) 
0.0

>  <ATG_ERE_CIS_up>  (24) 
1.0

>  <ATG_ERRa_TRANS_dn>  (24) 
0.0

>  <ATG_ERRa_TRANS_up>  (24) 
0.0

>  <ATG_ERRg_TRANS_dn>  (24) 
0.0

>  <ATG_ERRg_TRANS_up>  (24) 
0.0

>  <ATG_E_Box_CIS_dn>  (24) 
0.0

>  <ATG_E_Box_CIS_up>  (24) 
0.0

>  <ATG_Ets_CIS_dn>  (24) 
0.0

>  <ATG_Ets_CIS_up>  (24) 
0.0

>  <ATG_FXR_TRANS_up>  (24) 
0.0

>  <ATG_FoxA2_CIS_dn>  (24) 
0.0

>  <ATG_FoxA2_CIS_up>  (24) 
0.0

>  <ATG_FoxO_CIS_dn>  (24) 
0.0

>  <ATG_FoxO_CIS_up>  (24) 
0.0

>  <ATG_GAL4_TRANS_dn>  (24) 
0.0

>  <ATG_GAL4_TRANS_up>  (24) 
0.0

>  <ATG_GATA_CIS_dn>  (24) 
0.0

>  <ATG_GATA_CIS_up>  (24) 
0.0

>  <ATG_GLI_CIS_up>  (24) 
0.0

>  <ATG_GRE_CIS_dn>  (24) 
0.0

>  <ATG_GR_TRANS_dn>  (24) 
0.0

>  <ATG_GR_TRANS_up>  (24) 
0.0

>  <ATG_HIF1a_CIS_dn>  (24) 
0.0

>  <ATG_HIF1a_CIS_up>  (24) 
0.0

>  <ATG_HNF4a_TRANS_dn>  (24) 
0.0

>  <ATG_HNF4a_TRANS_up>  (24) 
0.0

>  <ATG_HNF6_CIS_dn>  (24) 
0.0

>  <ATG_HNF6_CIS_up>  (24) 
0.0

>  <ATG_HSE_CIS_dn>  (24) 
0.0

>  <ATG_HSE_CIS_up>  (24) 
0.0

>  <ATG_Hpa5_TRANS_dn>  (24) 
0.0

>  <ATG_Hpa5_TRANS_up>  (24) 
0.0

>  <ATG_IR1_CIS_dn>  (24) 
0.0

>  <ATG_IR1_CIS_up>  (24) 
0.0

>  <ATG_ISRE_CIS_dn>  (24) 
0.0

>  <ATG_ISRE_CIS_up>  (24) 
0.0

>  <ATG_LXRb_TRANS_up>  (24) 
0.0

>  <ATG_MRE_CIS_dn>  (24) 
0.0

>  <ATG_MRE_CIS_up>  (24) 
1.0

>  <ATG_M_06_CIS_dn>  (24) 
0.0

>  <ATG_M_06_CIS_up>  (24) 
0.0

>  <ATG_M_06_TRANS_dn>  (24) 
0.0

>  <ATG_M_06_TRANS_up>  (24) 
0.0

>  <ATG_M_19_CIS_dn>  (24) 
0.0

>  <ATG_M_19_CIS_up>  (24) 
0.0

>  <ATG_M_19_TRANS_dn>  (24) 
0.0

>  <ATG_M_19_TRANS_up>  (24) 
0.0

>  <ATG_M_32_CIS_dn>  (24) 
0.0

>  <ATG_M_32_CIS_up>  (24) 
0.0

>  <ATG_M_32_TRANS_dn>  (24) 
0.0

>  <ATG_M_32_TRANS_up>  (24) 
0.0

>  <ATG_M_61_CIS_dn>  (24) 
0.0

>  <ATG_M_61_CIS_up>  (24) 
0.0

>  <ATG_M_61_TRANS_dn>  (24) 
0.0

>  <ATG_M_61_TRANS_up>  (24) 
0.0

>  <ATG_Myb_CIS_dn>  (24) 
0.0

>  <ATG_Myb_CIS_up>  (24) 
0.0

>  <ATG_Myc_CIS_dn>  (24) 
0.0

>  <ATG_Myc_CIS_up>  (24) 
0.0

>  <ATG_NFI_CIS_dn>  (24) 
0.0

>  <ATG_NFI_CIS_up>  (24) 
0.0

>  <ATG_NF_kB_CIS_dn>  (24) 
0.0

>  <ATG_NF_kB_CIS_up>  (24) 
0.0

>  <ATG_NRF1_CIS_dn>  (24) 
0.0

>  <ATG_NRF2_ARE_CIS_dn>  (24) 
0.0

>  <ATG_NRF2_ARE_CIS_up>  (24) 
1.0

>  <ATG_NURR1_TRANS_dn>  (24) 
0.0

>  <ATG_Oct_MLP_CIS_dn>  (24) 
0.0

>  <ATG_Oct_MLP_CIS_up>  (24) 
0.0

>  <ATG_PBREM_CIS_dn>  (24) 
0.0

>  <ATG_PBREM_CIS_up>  (24) 
0.0

>  <ATG_PPARa_TRANS_dn>  (24) 
0.0

>  <ATG_PPARa_TRANS_up>  (24) 
0.0

>  <ATG_PPARd_TRANS_dn>  (24) 
0.0

>  <ATG_PPARd_TRANS_up>  (24) 
0.0

>  <ATG_PPARg_TRANS_dn>  (24) 
0.0

>  <ATG_PPARg_TRANS_up>  (24) 
0.0

>  <ATG_PPRE_CIS_dn>  (24) 
0.0

>  <ATG_PPRE_CIS_up>  (24) 
0.0

>  <ATG_PXRE_CIS_dn>  (24) 
0.0

>  <ATG_PXRE_CIS_up>  (24) 
1.0

>  <ATG_PXR_TRANS_dn>  (24) 
0.0

>  <ATG_PXR_TRANS_up>  (24) 
1.0

>  <ATG_Pax6_CIS_dn>  (24) 
0.0

>  <ATG_Pax6_CIS_up>  (24) 
0.0

>  <ATG_RARa_TRANS_dn>  (24) 
0.0

>  <ATG_RARa_TRANS_up>  (24) 
0.0

>  <ATG_RARb_TRANS_dn>  (24) 
0.0

>  <ATG_RARb_TRANS_up>  (24) 
0.0

>  <ATG_RARg_TRANS_dn>  (24) 
0.0

>  <ATG_RARg_TRANS_up>  (24) 
0.0

>  <ATG_RORE_CIS_dn>  (24) 
0.0

>  <ATG_RORE_CIS_up>  (24) 
0.0

>  <ATG_RORb_TRANS_dn>  (24) 
0.0

>  <ATG_RORb_TRANS_up>  (24) 
0.0

>  <ATG_RORg_TRANS_dn>  (24) 
0.0

>  <ATG_RORg_TRANS_up>  (24) 
0.0

>  <ATG_RXRa_TRANS_dn>  (24) 
0.0

>  <ATG_RXRa_TRANS_up>  (24) 
0.0

>  <ATG_RXRb_TRANS_dn>  (24) 
0.0

>  <ATG_RXRb_TRANS_up>  (24) 
0.0

>  <ATG_SREBP_CIS_dn>  (24) 
0.0

>  <ATG_SREBP_CIS_up>  (24) 
0.0

>  <ATG_STAT3_CIS_dn>  (24) 
0.0

>  <ATG_STAT3_CIS_up>  (24) 
0.0

>  <ATG_Sp1_CIS_dn>  (24) 
0.0

>  <ATG_TAL_CIS_dn>  (24) 
0.0

>  <ATG_TAL_CIS_up>  (24) 
0.0

>  <ATG_TA_CIS_dn>  (24) 
0.0

>  <ATG_TA_CIS_up>  (24) 
0.0

>  <ATG_TCF_b_cat_CIS_dn>  (24) 
0.0

>  <ATG_TCF_b_cat_CIS_up>  (24) 
0.0

>  <ATG_TGFb_CIS_dn>  (24) 
0.0

>  <ATG_THRa1_TRANS_dn>  (24) 
0.0

>  <ATG_THRa1_TRANS_up>  (24) 
0.0

>  <ATG_VDRE_CIS_dn>  (24) 
0.0

>  <ATG_VDRE_CIS_up>  (24) 
1.0

>  <ATG_VDR_TRANS_dn>  (24) 
0.0

>  <ATG_VDR_TRANS_up>  (24) 
0.0

>  <ATG_XTT_Cytotoxicity_up>  (24) 
0.0

>  <ATG_Xbp1_CIS_dn>  (24) 
0.0

>  <ATG_Xbp1_CIS_up>  (24) 
0.0

>  <ATG_p53_CIS_dn>  (24) 
0.0

>  <ATG_p53_CIS_up>  (24) 
0.0

>  <BSK_3C_Eselectin_down>  (24) 
1.0

>  <BSK_3C_Eselectin_up>  (24) 
0.0

>  <BSK_3C_HLADR_up>  (24) 
0.0

>  <BSK_3C_ICAM1_down>  (24) 
0.0

>  <BSK_3C_ICAM1_up>  (24) 
0.0

>  <BSK_3C_IL8_down>  (24) 
1.0

>  <BSK_3C_IL8_up>  (24) 
0.0

>  <BSK_3C_MCP1_down>  (24) 
1.0

>  <BSK_3C_MCP1_up>  (24) 
0.0

>  <BSK_3C_MIG_down>  (24) 
0.0

>  <BSK_3C_MIG_up>  (24) 
0.0

>  <BSK_3C_Proliferation_down>  (24) 
1.0

>  <BSK_3C_Proliferation_up>  (24) 
0.0

>  <BSK_3C_SRB_down>  (24) 
1.0

>  <BSK_3C_SRB_up>  (24) 
0.0

>  <BSK_3C_Thrombomodulin_down>  (24) 
0.0

>  <BSK_3C_Thrombomodulin_up>  (24) 
0.0

>  <BSK_3C_TissueFactor_down>  (24) 
0.0

>  <BSK_3C_TissueFactor_up>  (24) 
0.0

>  <BSK_3C_VCAM1_down>  (24) 
1.0

>  <BSK_3C_VCAM1_up>  (24) 
0.0

>  <BSK_3C_Vis_up>  (24) 
0.0

>  <BSK_3C_uPAR_up>  (24) 
0.0

>  <BSK_4H_Eotaxin3_down>  (24) 
1.0

>  <BSK_4H_Eotaxin3_up>  (24) 
0.0

>  <BSK_4H_MCP1_down>  (24) 
1.0

>  <BSK_4H_MCP1_up>  (24) 
0.0

>  <BSK_4H_Pselectin_down>  (24) 
1.0

>  <BSK_4H_Pselectin_up>  (24) 
0.0

>  <BSK_4H_SRB_down>  (24) 
1.0

>  <BSK_4H_SRB_up>  (24) 
0.0

>  <BSK_4H_VCAM1_down>  (24) 
1.0

>  <BSK_4H_VCAM1_up>  (24) 
0.0

>  <BSK_4H_VEGFRII_down>  (24) 
1.0

>  <BSK_4H_VEGFRII_up>  (24) 
0.0

>  <BSK_4H_uPAR_down>  (24) 
1.0

>  <BSK_4H_uPAR_up>  (24) 
0.0

>  <BSK_BE3C_HLADR_down>  (24) 
1.0

>  <BSK_BE3C_HLADR_up>  (24) 
0.0

>  <BSK_BE3C_IL1a_down>  (24) 
0.0

>  <BSK_BE3C_IL1a_up>  (24) 
0.0

>  <BSK_BE3C_IP10_down>  (24) 
1.0

>  <BSK_BE3C_IP10_up>  (24) 
0.0

>  <BSK_BE3C_MIG_down>  (24) 
0.0

>  <BSK_BE3C_MIG_up>  (24) 
0.0

>  <BSK_BE3C_MMP1_down>  (24) 
0.0

>  <BSK_BE3C_MMP1_up>  (24) 
1.0

>  <BSK_BE3C_PAI1_down>  (24) 
1.0

>  <BSK_BE3C_PAI1_up>  (24) 
0.0

>  <BSK_BE3C_SRB_down>  (24) 
1.0

>  <BSK_BE3C_SRB_up>  (24) 
0.0

>  <BSK_BE3C_TGFb1_down>  (24) 
0.0

>  <BSK_BE3C_TGFb1_up>  (24) 
0.0

>  <BSK_BE3C_tPA_down>  (24) 
0.0

>  <BSK_BE3C_tPA_up>  (24) 
0.0

>  <BSK_BE3C_uPAR_down>  (24) 
0.0

>  <BSK_BE3C_uPAR_up>  (24) 
0.0

>  <BSK_BE3C_uPA_down>  (24) 
0.0

>  <BSK_BE3C_uPA_up>  (24) 
0.0

>  <BSK_CASM3C_HLADR_down>  (24) 
0.0

>  <BSK_CASM3C_HLADR_up>  (24) 
0.0

>  <BSK_CASM3C_IL6_down>  (24) 
0.0

>  <BSK_CASM3C_IL6_up>  (24) 
1.0

>  <BSK_CASM3C_IL8_down>  (24) 
0.0

>  <BSK_CASM3C_IL8_up>  (24) 
0.0

>  <BSK_CASM3C_LDLR_down>  (24) 
0.0

>  <BSK_CASM3C_LDLR_up>  (24) 
0.0

>  <BSK_CASM3C_MCP1_down>  (24) 
0.0

>  <BSK_CASM3C_MCP1_up>  (24) 
0.0

>  <BSK_CASM3C_MCSF_down>  (24) 
0.0

>  <BSK_CASM3C_MCSF_up>  (24) 
0.0

>  <BSK_CASM3C_MIG_down>  (24) 
0.0

>  <BSK_CASM3C_MIG_up>  (24) 
0.0

>  <BSK_CASM3C_Proliferation_down>  (24) 
1.0

>  <BSK_CASM3C_Proliferation_up>  (24) 
0.0

>  <BSK_CASM3C_SAA_down>  (24) 
0.0

>  <BSK_CASM3C_SAA_up>  (24) 
0.0

>  <BSK_CASM3C_SRB_down>  (24) 
1.0

>  <BSK_CASM3C_SRB_up>  (24) 
0.0

>  <BSK_CASM3C_Thrombomodulin_down>  (24) 
0.0

>  <BSK_CASM3C_Thrombomodulin_up>  (24) 
1.0

>  <BSK_CASM3C_TissueFactor_down>  (24) 
0.0

>  <BSK_CASM3C_TissueFactor_up>  (24) 
0.0

>  <BSK_CASM3C_VCAM1_down>  (24) 
0.0

>  <BSK_CASM3C_VCAM1_up>  (24) 
0.0

>  <BSK_CASM3C_uPAR_down>  (24) 
0.0

>  <BSK_CASM3C_uPAR_up>  (24) 
0.0

>  <BSK_KF3CT_ICAM1_down>  (24) 
0.0

>  <BSK_KF3CT_ICAM1_up>  (24) 
0.0

>  <BSK_KF3CT_IL1a_down>  (24) 
1.0

>  <BSK_KF3CT_IL1a_up>  (24) 
0.0

>  <BSK_KF3CT_IP10_down>  (24) 
0.0

>  <BSK_KF3CT_IP10_up>  (24) 
0.0

>  <BSK_KF3CT_MCP1_down>  (24) 
0.0

>  <BSK_KF3CT_MCP1_up>  (24) 
0.0

>  <BSK_KF3CT_MMP9_down>  (24) 
1.0

>  <BSK_KF3CT_MMP9_up>  (24) 
0.0

>  <BSK_KF3CT_SRB_down>  (24) 
1.0

>  <BSK_KF3CT_SRB_up>  (24) 
0.0

>  <BSK_KF3CT_TGFb1_down>  (24) 
0.0

>  <BSK_KF3CT_TGFb1_up>  (24) 
0.0

>  <BSK_KF3CT_TIMP2_down>  (24) 
1.0

>  <BSK_KF3CT_TIMP2_up>  (24) 
0.0

>  <BSK_KF3CT_uPA_down>  (24) 
0.0

>  <BSK_KF3CT_uPA_up>  (24) 
0.0

>  <BSK_LPS_CD40_down>  (24) 
1.0

>  <BSK_LPS_CD40_up>  (24) 
0.0

>  <BSK_LPS_Eselectin_down>  (24) 
1.0

>  <BSK_LPS_Eselectin_up>  (24) 
0.0

>  <BSK_LPS_IL1a_down>  (24) 
1.0

>  <BSK_LPS_IL1a_up>  (24) 
0.0

>  <BSK_LPS_IL8_down>  (24) 
1.0

>  <BSK_LPS_IL8_up>  (24) 
0.0

>  <BSK_LPS_MCP1_down>  (24) 
1.0

>  <BSK_LPS_MCP1_up>  (24) 
0.0

>  <BSK_LPS_MCSF_down>  (24) 
1.0

>  <BSK_LPS_MCSF_up>  (24) 
0.0

>  <BSK_LPS_PGE2_down>  (24) 
0.0

>  <BSK_LPS_PGE2_up>  (24) 
0.0

>  <BSK_LPS_SRB_down>  (24) 
1.0

>  <BSK_LPS_SRB_up>  (24) 
0.0

>  <BSK_LPS_TNFa_down>  (24) 
1.0

>  <BSK_LPS_TNFa_up>  (24) 
0.0

>  <BSK_LPS_TissueFactor_down>  (24) 
0.0

>  <BSK_LPS_TissueFactor_up>  (24) 
0.0

>  <BSK_LPS_VCAM1_down>  (24) 
1.0

>  <BSK_LPS_VCAM1_up>  (24) 
0.0

>  <BSK_SAg_CD38_down>  (24) 
1.0

>  <BSK_SAg_CD38_up>  (24) 
0.0

>  <BSK_SAg_CD40_down>  (24) 
1.0

>  <BSK_SAg_CD40_up>  (24) 
0.0

>  <BSK_SAg_CD69_down>  (24) 
1.0

>  <BSK_SAg_CD69_up>  (24) 
0.0

>  <BSK_SAg_Eselectin_down>  (24) 
1.0

>  <BSK_SAg_Eselectin_up>  (24) 
0.0

>  <BSK_SAg_IL8_down>  (24) 
1.0

>  <BSK_SAg_IL8_up>  (24) 
0.0

>  <BSK_SAg_MCP1_down>  (24) 
1.0

>  <BSK_SAg_MCP1_up>  (24) 
0.0

>  <BSK_SAg_MIG_down>  (24) 
1.0

>  <BSK_SAg_MIG_up>  (24) 
0.0

>  <BSK_SAg_PBMCCytotoxicity_down>  (24) 
1.0

>  <BSK_SAg_PBMCCytotoxicity_up>  (24) 
0.0

>  <BSK_SAg_Proliferation_down>  (24) 
1.0

>  <BSK_SAg_Proliferation_up>  (24) 
0.0

>  <BSK_SAg_SRB_down>  (24) 
1.0

>  <BSK_SAg_SRB_up>  (24) 
0.0

>  <BSK_hDFCGF_CollagenIII_down>  (24) 
0.0

>  <BSK_hDFCGF_CollagenIII_up>  (24) 
0.0

>  <BSK_hDFCGF_EGFR_down>  (24) 
0.0

>  <BSK_hDFCGF_EGFR_up>  (24) 
0.0

>  <BSK_hDFCGF_IL8_down>  (24) 
0.0

>  <BSK_hDFCGF_IL8_up>  (24) 
0.0

>  <BSK_hDFCGF_IP10_down>  (24) 
1.0

>  <BSK_hDFCGF_IP10_up>  (24) 
0.0

>  <BSK_hDFCGF_MCSF_down>  (24) 
1.0

>  <BSK_hDFCGF_MCSF_up>  (24) 
0.0

>  <BSK_hDFCGF_MIG_down>  (24) 
0.0

>  <BSK_hDFCGF_MIG_up>  (24) 
0.0

>  <BSK_hDFCGF_MMP1_down>  (24) 
0.0

>  <BSK_hDFCGF_MMP1_up>  (24) 
1.0

>  <BSK_hDFCGF_PAI1_down>  (24) 
1.0

>  <BSK_hDFCGF_PAI1_up>  (24) 
0.0

>  <BSK_hDFCGF_Proliferation_down>  (24) 
1.0

>  <BSK_hDFCGF_Proliferation_up>  (24) 
0.0

>  <BSK_hDFCGF_SRB_down>  (24) 
1.0

>  <BSK_hDFCGF_SRB_up>  (24) 
0.0

>  <BSK_hDFCGF_TIMP1_down>  (24) 
0.0

>  <BSK_hDFCGF_TIMP1_up>  (24) 
0.0

>  <BSK_hDFCGF_VCAM1_down>  (24) 
1.0

>  <BSK_hDFCGF_VCAM1_up>  (24) 
0.0

>  <CLD_ABCB11_24hr>  (24) 
0.0

>  <CLD_ABCB11_48hr>  (24) 
0.0

>  <CLD_ABCB11_6hr>  (24) 
0.0

>  <CLD_ABCB1_24hr>  (24) 
0.0

>  <CLD_ABCB1_48hr>  (24) 
0.0

>  <CLD_ABCB1_6hr>  (24) 
0.0

>  <CLD_ABCG2_24hr>  (24) 
0.0

>  <CLD_ABCG2_48hr>  (24) 
0.0

>  <CLD_ABCG2_6hr>  (24) 
0.0

>  <CLD_ACTIN_24hr>  (24) 
0.0

>  <CLD_ACTIN_48hr>  (24) 
0.0

>  <CLD_ACTIN_6hr>  (24) 
0.0

>  <CLD_CYP1A1_24hr>  (24) 
0.0

>  <CLD_CYP1A1_48hr>  (24) 
1.0

>  <CLD_CYP1A1_6hr>  (24) 
1.0

>  <CLD_CYP1A2_24hr>  (24) 
1.0

>  <CLD_CYP1A2_48hr>  (24) 
1.0

>  <CLD_CYP1A2_6hr>  (24) 
1.0

>  <CLD_CYP2B6_24hr>  (24) 
1.0

>  <CLD_CYP2B6_48hr>  (24) 
1.0

>  <CLD_CYP2B6_6hr>  (24) 
1.0

>  <CLD_CYP2C19_24hr>  (24) 
0.0

>  <CLD_CYP2C19_48hr>  (24) 
0.0

>  <CLD_CYP2C19_6hr>  (24) 
0.0

>  <CLD_CYP2C9_24hr>  (24) 
0.0

>  <CLD_CYP2C9_48hr>  (24) 
0.0

>  <CLD_CYP2C9_6hr>  (24) 
0.0

>  <CLD_CYP3A4_24hr>  (24) 
1.0

>  <CLD_CYP3A4_48hr>  (24) 
1.0

>  <CLD_CYP3A4_6hr>  (24) 
1.0

>  <CLD_GAPDH_24hr>  (24) 
0.0

>  <CLD_GAPDH_48hr>  (24) 
0.0

>  <CLD_GAPDH_6hr>  (24) 
0.0

>  <CLD_GSTA2_24hr>  (24) 
0.0

>  <CLD_GSTA2_48hr>  (24) 
0.0

>  <CLD_GSTA2_6hr>  (24) 
0.0

>  <CLD_HMGCS2_24hr>  (24) 
0.0

>  <CLD_HMGCS2_48hr>  (24) 
0.0

>  <CLD_HMGCS2_6hr>  (24) 
0.0

>  <CLD_SLCO1B1_24hr>  (24) 
0.0

>  <CLD_SLCO1B1_48hr>  (24) 
0.0

>  <CLD_SLCO1B1_6hr>  (24) 
0.0

>  <CLD_SULT2A_24hr>  (24) 
0.0

>  <CLD_SULT2A_48hr>  (24) 
0.0

>  <CLD_SULT2A_6hr>  (24) 
0.0

>  <CLD_UGT1A1_24hr>  (24) 
1.0

>  <CLD_UGT1A1_48hr>  (24) 
1.0

>  <CLD_UGT1A1_6hr>  (24) 
0.0

>  <NHEERL_MHC_CellCount_dn>  (24) 
0.0

>  <NHEERL_MHC_CellCount_up>  (24) 
0.0

>  <NHEERL_MHC_MHCvCellCount_dn>  (24) 
0.0

>  <NHEERL_MHC_MHCvCellCount_up>  (24) 
0.0

>  <NHEERL_ZF_144hpf_TERATOSCORE_up>  (24) 
1.0

>  <NIS_HEK293T_CTG_Cytotoxicity>  (24) 
0.0

>  <NIS_RAIU_inhibition>  (24) 
1.0

>  <NVS_ADME_hCYP19A1>  (24) 
0.0

>  <NVS_ADME_hCYP19A1_Activator>  (24) 
0.0

>  <NVS_ADME_hCYP1A1>  (24) 
0.0

>  <NVS_ADME_hCYP1A1_Activator>  (24) 
0.0

>  <NVS_ADME_hCYP2C18>  (24) 
1.0

>  <NVS_ADME_hCYP2C18_Activator>  (24) 
0.0

>  <NVS_ADME_hCYP2C19>  (24) 
1.0

>  <NVS_ADME_hCYP2C19_Activator>  (24) 
0.0

>  <NVS_ADME_hCYP2C8>  (24) 
0.0

>  <NVS_ADME_hCYP2C8_Activator>  (24) 
0.0

>  <NVS_ADME_hCYP2C9>  (24) 
1.0

>  <NVS_ADME_hCYP2C9_Activator>  (24) 
0.0

>  <NVS_ADME_hCYP2J2>  (24) 
0.0

>  <NVS_ADME_hCYP2J2_Activator>  (24) 
0.0

>  <NVS_ADME_hCYP3A4>  (24) 
0.0

>  <NVS_ADME_hCYP3A4_Activator>  (24) 
0.0

>  <NVS_ADME_hCYP4F12>  (24) 
0.0

>  <NVS_ADME_hCYP4F12_Activator>  (24) 
0.0

>  <NVS_ADME_rCYP2A1>  (24) 
0.0

>  <NVS_ADME_rCYP2A1_Activator>  (24) 
0.0

>  <NVS_ADME_rCYP2A2>  (24) 
0.0

>  <NVS_ADME_rCYP2A2_Activator>  (24) 
0.0

>  <NVS_ADME_rCYP2B1>  (24) 
0.0

>  <NVS_ADME_rCYP2B1_Activator>  (24) 
0.0

>  <NVS_ADME_rCYP2C11>  (24) 
0.0

>  <NVS_ADME_rCYP2C11_Activator>  (24) 
0.0

>  <NVS_ADME_rCYP2C12>  (24) 
0.0

>  <NVS_ADME_rCYP2C12_Activator>  (24) 
0.0

>  <NVS_ADME_rCYP2C13>  (24) 
0.0

>  <NVS_ADME_rCYP2C13_Activator>  (24) 
0.0

>  <NVS_ADME_rCYP2C6>  (24) 
1.0

>  <NVS_ADME_rCYP2C6_Activator>  (24) 
0.0

>  <NVS_ADME_rCYP2D1>  (24) 
0.0

>  <NVS_ADME_rCYP2D1_Activator>  (24) 
0.0

>  <NVS_ADME_rCYP2D2>  (24) 
0.0

>  <NVS_ADME_rCYP2D2_Activator>  (24) 
0.0

>  <NVS_ADME_rCYP3A1>  (24) 
0.0

>  <NVS_ADME_rCYP3A1_Activator>  (24) 
0.0

>  <NVS_ADME_rCYP3A2>  (24) 
1.0

>  <NVS_ADME_rCYP3A2_Activator>  (24) 
0.0

>  <NVS_ENZ_hBACE>  (24) 
1.0

>  <NVS_ENZ_hBACE_Activator>  (24) 
0.0

>  <NVS_ENZ_hCASP5>  (24) 
1.0

>  <NVS_ENZ_hCASP5_Activator>  (24) 
0.0

>  <NVS_ENZ_hEphB1>  (24) 
0.0

>  <NVS_ENZ_hEphB1_Activator>  (24) 
0.0

>  <NVS_ENZ_hMAPK3>  (24) 
0.0

>  <NVS_ENZ_hMAPK3_Activator>  (24) 
0.0

>  <NVS_ENZ_hMMP13>  (24) 
0.0

>  <NVS_ENZ_hMMP13_Activator>  (24) 
0.0

>  <NVS_ENZ_hMMP7>  (24) 
0.0

>  <NVS_ENZ_hMMP7_Activator>  (24) 
0.0

>  <NVS_ENZ_hMMP9>  (24) 
0.0

>  <NVS_ENZ_hMMP9_Activator>  (24) 
0.0

>  <NVS_ENZ_hPKD2>  (24) 
0.0

>  <NVS_ENZ_hPKD2_Activator>  (24) 
0.0

>  <NVS_ENZ_hPTPN1>  (24) 
0.0

>  <NVS_ENZ_hPTPN11>  (24) 
0.0

>  <NVS_ENZ_hPTPN11_Activator>  (24) 
0.0

>  <NVS_ENZ_hPTPN1_Activator>  (24) 
0.0

>  <NVS_ENZ_hPTPN2>  (24) 
0.0

>  <NVS_ENZ_hPTPN2_Activator>  (24) 
0.0

>  <NVS_ENZ_hPTPRB>  (24) 
0.0

>  <NVS_ENZ_hPTPRB_Activator>  (24) 
0.0

>  <NVS_ENZ_hPTPRM>  (24) 
0.0

>  <NVS_ENZ_hPTPRM_Activator>  (24) 
0.0

>  <NVS_ENZ_rMAOAC>  (24) 
0.0

>  <NVS_ENZ_rMAOAC_Activator>  (24) 
0.0

>  <NVS_ENZ_rMAOBC>  (24) 
1.0

>  <NVS_ENZ_rMAOBC_Activator>  (24) 
0.0

>  <NVS_GPCR_g5HT4>  (24) 
0.0

>  <NVS_GPCR_h5HT5A>  (24) 
0.0

>  <NVS_GPCR_h5HT6>  (24) 
0.0

>  <NVS_GPCR_h5HT7>  (24) 
0.0

>  <NVS_GPCR_hAdoRA1>  (24) 
1.0

>  <NVS_GPCR_hAdra2C>  (24) 
0.0

>  <NVS_GPCR_hAdrb1>  (24) 
0.0

>  <NVS_GPCR_hAdrb2>  (24) 
0.0

>  <NVS_GPCR_hC5a>  (24) 
0.0

>  <NVS_GPCR_hDRD1>  (24) 
0.0

>  <NVS_GPCR_hDRD2s>  (24) 
0.0

>  <NVS_GPCR_hLTB4_BLT1>  (24) 
0.0

>  <NVS_GPCR_hM1>  (24) 
0.0

>  <NVS_GPCR_hM2>  (24) 
1.0

>  <NVS_GPCR_hM3>  (24) 
0.0

>  <NVS_GPCR_hM4>  (24) 
0.0

>  <NVS_GPCR_hNK2>  (24) 
0.0

>  <NVS_GPCR_hOpiate_D1>  (24) 
0.0

>  <NVS_GPCR_hOpiate_mu>  (24) 
0.0

>  <NVS_GPCR_rAdra1_NonSelective>  (24) 
0.0

>  <NVS_GPCR_rNK1>  (24) 
0.0

>  <NVS_GPCR_rOpiate_NonSelective>  (24) 
0.0

>  <NVS_IC_rCaDHPRCh_L>  (24) 
0.0

>  <NVS_LGIC_bGABARa5>  (24) 
0.0

>  <NVS_LGIC_rAMPA>  (24) 
0.0

>  <NVS_MP_hPBR>  (24) 
0.0

>  <NVS_MP_rPBR>  (24) 
0.0

>  <NVS_NR_bPR>  (24) 
0.0

>  <NVS_NR_hCAR_Antagonist>  (24) 
0.0

>  <NVS_NR_hFXR_Antagonist>  (24) 
0.0

>  <NVS_NR_hPPARa>  (24) 
0.0

>  <NVS_NR_hPPARg>  (24) 
0.0

>  <NVS_NR_hPXR>  (24) 
0.0

>  <NVS_NR_hRAR_Antagonist>  (24) 
0.0

>  <NVS_NR_hTRa_Antagonist>  (24) 
0.0

>  <NVS_TR_gDAT>  (24) 
1.0

>  <NVS_TR_hDAT>  (24) 
0.0

>  <NVS_TR_hNET>  (24) 
0.0

>  <NVS_TR_rNET>  (24) 
0.0

>  <NVS_TR_rVMAT2>  (24) 
0.0

>  <OT_AR_ARSRC1_0480>  (24) 
0.0

>  <OT_AR_ARSRC1_0960>  (24) 
1.0

>  <OT_ER_ERaERa_0480>  (24) 
1.0

>  <OT_ER_ERaERa_1440>  (24) 
1.0

>  <OT_ER_ERaERb_0480>  (24) 
1.0

>  <OT_ER_ERbERb_0480>  (24) 
1.0

>  <OT_ER_ERbERb_1440>  (24) 
1.0

>  <OT_ERa_EREGFP_0480>  (24) 
1.0

>  <TOX21_AP1_BLA_Agonist_ch1>  (24) 
1.0

>  <TOX21_AP1_BLA_Agonist_ch2>  (24) 
0.0

>  <TOX21_AP1_BLA_Agonist_ratio>  (24) 
0.0

>  <TOX21_AP1_BLA_Agonist_viability>  (24) 
0.0

>  <TOX21_ARE_BLA_Agonist_ch1>  (24) 
0.0

>  <TOX21_ARE_BLA_Agonist_ch2>  (24) 
0.0

>  <TOX21_ARE_BLA_agonist_viability>  (24) 
0.0

>  <TOX21_AR_BLA_Agonist_ch1>  (24) 
0.0

>  <TOX21_AR_BLA_Agonist_ch2>  (24) 
0.0

>  <TOX21_AR_BLA_Agonist_ratio>  (24) 
0.0

>  <TOX21_AR_BLA_Antagonist_ch1>  (24) 
0.0

>  <TOX21_AR_BLA_Antagonist_ch2>  (24) 
1.0

>  <TOX21_AR_BLA_Antagonist_ratio>  (24) 
1.0

>  <TOX21_AR_BLA_Antagonist_viability>  (24) 
0.0

>  <TOX21_AR_LUC_MDAKB2_Agonist>  (24) 
0.0

>  <TOX21_AR_LUC_MDAKB2_Agonist_3uM_Nilutamide>  (24) 
0.0

>  <TOX21_AR_LUC_MDAKB2_Agonist_3uM_Nilutamide_viability>  (24) 
0.0

>  <TOX21_AR_LUC_MDAKB2_Antagonist_0.5nM_R1881>  (24) 
1.0

>  <TOX21_AR_LUC_MDAKB2_Antagonist_0.5nM_R1881_viability>  (24) 
0.0

>  <TOX21_AR_LUC_MDAKB2_Antagonist_10nM_R1881>  (24) 
1.0

>  <TOX21_AR_LUC_MDAKB2_Antagonist_10nM_R1881_viability>  (24) 
0.0

>  <TOX21_AhR_LUC_Agonist>  (24) 
0.0

>  <TOX21_Aromatase_Inhibition>  (24) 
0.0

>  <TOX21_Aromatase_Inhibition_viability>  (24) 
0.0

>  <TOX21_AutoFluor_HEK293_Cell_blue>  (24) 
0.0

>  <TOX21_AutoFluor_HEK293_Cell_green>  (24) 
0.0

>  <TOX21_AutoFluor_HEK293_Cell_red>  (24) 
0.0

>  <TOX21_AutoFluor_HEK293_Media_blue>  (24) 
0.0

>  <TOX21_AutoFluor_HEK293_Media_green>  (24) 
0.0

>  <TOX21_AutoFluor_HEK293_Media_red>  (24) 
0.0

>  <TOX21_AutoFluor_HEPG2_Cell_blue>  (24) 
0.0

>  <TOX21_AutoFluor_HEPG2_Cell_green>  (24) 
0.0

>  <TOX21_AutoFluor_HEPG2_Cell_red>  (24) 
0.0

>  <TOX21_AutoFluor_HEPG2_Media_blue>  (24) 
0.0

>  <TOX21_AutoFluor_HEPG2_Media_green>  (24) 
0.0

>  <TOX21_AutoFluor_HEPG2_Media_red>  (24) 
0.0

>  <TOX21_CAR_Agonist>  (24) 
1.0

>  <TOX21_CAR_Antagonist>  (24) 
0.0

>  <TOX21_CAR_Antagonist_viability>  (24) 
0.0

>  <TOX21_CASP3_CHO>  (24) 
0.0

>  <TOX21_CASP3_CHO_viability>  (24) 
1.0

>  <TOX21_CASP3_HEPG2>  (24) 
0.0

>  <TOX21_CASP3_HEPG2_viability>  (24) 
0.0

>  <TOX21_DT40>  (24) 
1.0

>  <TOX21_DT40_100>  (24) 
1.0

>  <TOX21_DT40_657>  (24) 
1.0

>  <TOX21_ELG1_LUC_Agonist>  (24) 
0.0

>  <TOX21_ELG1_LUC_Agonist_viability>  (24) 
0.0

>  <TOX21_ERR_Agonist>  (24) 
0.0

>  <TOX21_ERR_Antagonist>  (24) 
1.0

>  <TOX21_ERa_BLA_Agonist_ch1>  (24) 
0.0

>  <TOX21_ERa_BLA_Agonist_ch2>  (24) 
1.0

>  <TOX21_ERa_BLA_Agonist_ratio>  (24) 
0.0

>  <TOX21_ERa_BLA_Antagonist_ch1>  (24) 
1.0

>  <TOX21_ERa_BLA_Antagonist_ch2>  (24) 
0.0

>  <TOX21_ERa_BLA_Antagonist_ratio>  (24) 
1.0

>  <TOX21_ERa_BLA_Antagonist_viability>  (24) 
0.0

>  <TOX21_ERa_LUC_VM7_Agonist>  (24) 
1.0

>  <TOX21_ERa_LUC_VM7_Agonist_10nM_ICI182780>  (24) 
0.0

>  <TOX21_ERa_LUC_VM7_Agonist_10nM_ICI182780_viability>  (24) 
0.0

>  <TOX21_ERa_LUC_VM7_Antagonist_0.1nM_E2>  (24) 
0.0

>  <TOX21_ERa_LUC_VM7_Antagonist_0.1nM_E2_viability>  (24) 
0.0

>  <TOX21_ERa_LUC_VM7_Antagonist_0.5nM_E2>  (24) 
0.0

>  <TOX21_ERa_LUC_VM7_Antagonist_0.5nM_E2_viability>  (24) 
0.0

>  <TOX21_ERb_BLA_Agonist_ch1>  (24) 
0.0

>  <TOX21_ERb_BLA_Agonist_ch2>  (24) 
0.0

>  <TOX21_ERb_BLA_Agonist_ratio>  (24) 
0.0

>  <TOX21_ERb_BLA_Agonist_viability>  (24) 
0.0

>  <TOX21_ERb_BLA_Antagonist_ch1>  (24) 
0.0

>  <TOX21_ERb_BLA_Antagonist_ch2>  (24) 
1.0

>  <TOX21_ERb_BLA_Antagonist_ratio>  (24) 
1.0

>  <TOX21_ERb_BLA_Antagonist_viability>  (24) 
0.0

>  <TOX21_ESRE_BLA_ch1>  (24) 
0.0

>  <TOX21_ESRE_BLA_ch2>  (24) 
0.0

>  <TOX21_ESRE_BLA_ratio>  (24) 
0.0

>  <TOX21_ESRE_BLA_viability>  (24) 
0.0

>  <TOX21_FXR_BLA_Antagonist_ch1>  (24) 
0.0

>  <TOX21_FXR_BLA_Antagonist_ch2>  (24) 
0.0

>  <TOX21_FXR_BLA_agonist_ch1>  (24) 
0.0

>  <TOX21_FXR_BLA_agonist_ch2>  (24) 
0.0

>  <TOX21_FXR_BLA_agonist_ratio>  (24) 
0.0

>  <TOX21_FXR_BLA_agonist_viability>  (24) 
0.0

>  <TOX21_FXR_BLA_antagonist_ratio>  (24) 
1.0

>  <TOX21_FXR_BLA_antagonist_viability>  (24) 
0.0

>  <TOX21_GR_BLA_Agonist_ch1>  (24) 
0.0

>  <TOX21_GR_BLA_Agonist_ch2>  (24) 
0.0

>  <TOX21_GR_BLA_Agonist_ratio>  (24) 
0.0

>  <TOX21_GR_BLA_Antagonist_ch1>  (24) 
0.0

>  <TOX21_GR_BLA_Antagonist_ch2>  (24) 
1.0

>  <TOX21_GR_BLA_Antagonist_ratio>  (24) 
1.0

>  <TOX21_GR_BLA_Antagonist_viability>  (24) 
0.0

>  <TOX21_H2AX_HTRF_CHO_Agonist_ch1>  (24) 
0.0

>  <TOX21_H2AX_HTRF_CHO_Agonist_ch2>  (24) 
0.0

>  <TOX21_H2AX_HTRF_CHO_Agonist_ratio>  (24) 
0.0

>  <TOX21_H2AX_HTRF_CHO_viability>  (24) 
1.0

>  <TOX21_HDAC_Inhibition>  (24) 
0.0

>  <TOX21_HDAC_Inhibition_viability>  (24) 
0.0

>  <TOX21_HRE_BLA_Agonist_ch1>  (24) 
0.0

>  <TOX21_HRE_BLA_Agonist_ch2>  (24) 
0.0

>  <TOX21_HRE_BLA_Agonist_ratio>  (24) 
0.0

>  <TOX21_HRE_BLA_Agonist_viability>  (24) 
0.0

>  <TOX21_HSE_BLA_agonist_ch1>  (24) 
0.0

>  <TOX21_HSE_BLA_agonist_ch2>  (24) 
0.0

>  <TOX21_HSE_BLA_agonist_ratio>  (24) 
0.0

>  <TOX21_HSE_BLA_agonist_viability>  (24) 
0.0

>  <TOX21_LUC_Biochem>  (24) 
0.0

>  <TOX21_MMP_fitc>  (24) 
0.0

>  <TOX21_MMP_ratio_down>  (24) 
1.0

>  <TOX21_MMP_ratio_up>  (24) 
0.0

>  <TOX21_MMP_rhodamine>  (24) 
1.0

>  <TOX21_MMP_viability>  (24) 
0.0

>  <TOX21_NFkB_BLA_agonist_ch1>  (24) 
1.0

>  <TOX21_NFkB_BLA_agonist_ch2>  (24) 
0.0

>  <TOX21_NFkB_BLA_agonist_ratio>  (24) 
0.0

>  <TOX21_NFkB_BLA_agonist_viability>  (24) 
0.0

>  <TOX21_PGC_ERR_Agonist>  (24) 
0.0

>  <TOX21_PGC_ERR_Antagonist>  (24) 
0.0

>  <TOX21_PGC_ERR_viability>  (24) 
0.0

>  <TOX21_PPARd_BLA_Agonist_viability>  (24) 
0.0

>  <TOX21_PPARd_BLA_Antagonist_ch1>  (24) 
0.0

>  <TOX21_PPARd_BLA_Antagonist_ch2>  (24) 
0.0

>  <TOX21_PPARd_BLA_agonist_ch1>  (24) 
0.0

>  <TOX21_PPARd_BLA_agonist_ch2>  (24) 
0.0

>  <TOX21_PPARd_BLA_agonist_ratio>  (24) 
0.0

>  <TOX21_PPARd_BLA_antagonist_ratio>  (24) 
1.0

>  <TOX21_PPARd_BLA_antagonist_viability>  (24) 
0.0

>  <TOX21_PPARg_BLA_Agonist_ch1>  (24) 
0.0

>  <TOX21_PPARg_BLA_Agonist_ch2>  (24) 
0.0

>  <TOX21_PPARg_BLA_Agonist_ratio>  (24) 
0.0

>  <TOX21_PPARg_BLA_Antagonist_ch1>  (24) 
0.0

>  <TOX21_PPARg_BLA_Antagonist_ch2>  (24) 
0.0

>  <TOX21_PPARg_BLA_antagonist_ratio>  (24) 
0.0

>  <TOX21_PPARg_BLA_antagonist_viability>  (24) 
0.0

>  <TOX21_PR_BLA_Agonist_ch1>  (24) 
0.0

>  <TOX21_PR_BLA_Agonist_ch2>  (24) 
0.0

>  <TOX21_PR_BLA_Agonist_ratio>  (24) 
0.0

>  <TOX21_PR_BLA_Antagonist_ch1>  (24) 
0.0

>  <TOX21_PR_BLA_Antagonist_ch2>  (24) 
1.0

>  <TOX21_PR_BLA_Antagonist_ratio>  (24) 
1.0

>  <TOX21_PR_BLA_Antagonist_viability>  (24) 
0.0

>  <TOX21_PR_BLA_Followup_Agonist_ch1>  (24) 
0.0

>  <TOX21_PR_BLA_Followup_Agonist_ch2>  (24) 
0.0

>  <TOX21_PR_BLA_Followup_Agonist_ratio>  (24) 
1.0

>  <TOX21_PR_BLA_Followup_Agonist_viability>  (24) 
1.0

>  <TOX21_PR_BLA_Followup_Antagonist_ch1>  (24) 
0.0

>  <TOX21_PR_BLA_Followup_Antagonist_ch2>  (24) 
1.0

>  <TOX21_PR_BLA_Followup_Antagonist_ratio>  (24) 
1.0

>  <TOX21_PR_BLA_Followup_Antagonist_viability>  (24) 
0.0

>  <TOX21_PR_LUC_Followup_Agonist>  (24) 
0.0

>  <TOX21_PR_LUC_Followup_Agonist_viability>  (24) 
0.0

>  <TOX21_PR_LUC_Followup_Antagonist>  (24) 
1.0

>  <TOX21_PR_LUC_Followup_Antagonist_viability>  (24) 
0.0

>  <TOX21_PXR_Agonist>  (24) 
0.0

>  <TOX21_PXR_viability>  (24) 
1.0

>  <TOX21_RAR_LUC_Agonist>  (24) 
0.0

>  <TOX21_RAR_LUC_Agonist_viability>  (24) 
0.0

>  <TOX21_RAR_LUC_Antagonist_viability>  (24) 
0.0

>  <TOX21_RORg_LUC_CHO_Antagonist>  (24) 
0.0

>  <TOX21_RORg_LUC_CHO_Antagonist_viability>  (24) 
1.0

>  <TOX21_RT_HEK293_FLO_00hr_viability>  (24) 
0.0

>  <TOX21_RT_HEK293_FLO_08hr_viability>  (24) 
0.0

>  <TOX21_RT_HEK293_FLO_16hr_viability>  (24) 
0.0

>  <TOX21_RT_HEK293_FLO_24hr_viability>  (24) 
0.0

>  <TOX21_RT_HEK293_FLO_32hr_viability>  (24) 
0.0

>  <TOX21_RT_HEK293_FLO_40hr_viability>  (24) 
0.0

>  <TOX21_RT_HEK293_GLO_00hr_viability>  (24) 
0.0

>  <TOX21_RT_HEK293_GLO_08hr_viability>  (24) 
1.0

>  <TOX21_RT_HEK293_GLO_16hr_viability>  (24) 
1.0

>  <TOX21_RT_HEK293_GLO_24hr_viability>  (24) 
1.0

>  <TOX21_RT_HEK293_GLO_32hr_viability>  (24) 
1.0

>  <TOX21_RT_HEK293_GLO_40hr_viability>  (24) 
1.0

>  <TOX21_RT_HEPG2_FLO_00hr_ctrl_viability>  (24) 
0.0

>  <TOX21_RT_HEPG2_FLO_08hr_viability>  (24) 
0.0

>  <TOX21_RT_HEPG2_FLO_16hr_ctrl_viability>  (24) 
0.0

>  <TOX21_RT_HEPG2_FLO_24hr_viability>  (24) 
0.0

>  <TOX21_RT_HEPG2_FLO_32hr_ctrl_viability>  (24) 
0.0

>  <TOX21_RT_HEPG2_GLO_00hr_ctrl_viability>  (24) 
0.0

>  <TOX21_RT_HEPG2_GLO_08hr_ctrl_viability>  (24) 
1.0

>  <TOX21_RT_HEPG2_GLO_16hr_ctrl_viability>  (24) 
1.0

>  <TOX21_RT_HEPG2_GLO_24hr_ctrl_viability>  (24) 
1.0

>  <TOX21_RT_HEPG2_GLO_32hr_ctrl_viability>  (24) 
0.0

>  <TOX21_RT_HEPG2_GLO_40hr_viability>  (24) 
0.0

>  <TOX21_RXR_BLA_Agonist_ch1>  (24) 
0.0

>  <TOX21_RXR_BLA_Agonist_ch2>  (24) 
0.0

>  <TOX21_RXR_BLA_Agonist_ratio>  (24) 
0.0

>  <TOX21_RXR_BLA_Agonist_viability>  (24) 
0.0

>  <TOX21_SBE_BLA_Agonist_ch1>  (24) 
0.0

>  <TOX21_SBE_BLA_Agonist_ch2>  (24) 
0.0

>  <TOX21_SBE_BLA_Agonist_ratio>  (24) 
0.0

>  <TOX21_SBE_BLA_Agonist_viability>  (24) 
0.0

>  <TOX21_SBE_BLA_Antagonist_ch1>  (24) 
0.0

>  <TOX21_SBE_BLA_Antagonist_ch2>  (24) 
0.0

>  <TOX21_SBE_BLA_Antagonist_ratio>  (24) 
0.0

>  <TOX21_SBE_BLA_Antagonist_viability>  (24) 
0.0

>  <TOX21_SSH_3T3_GLI3_Agonist>  (24) 
0.0

>  <TOX21_SSH_3T3_GLI3_Agonist_viability>  (24) 
0.0

>  <TOX21_SSH_3T3_GLI3_Antagonist>  (24) 
1.0

>  <TOX21_SSH_3T3_GLI3_Antagonist_viability>  (24) 
0.0

>  <TOX21_TRHR_HEK293_Agonist>  (24) 
0.0

>  <TOX21_TRHR_HEK293_Antagonist>  (24) 
0.0

>  <TOX21_TR_LUC_GH3_Agonist>  (24) 
0.0

>  <TOX21_TR_LUC_GH3_Antagonist>  (24) 
1.0

>  <TOX21_TR_LUC_GH3_Antagonist_viability>  (24) 
1.0

>  <TOX21_TSHR_Agonist_ch2>  (24) 
0.0

>  <TOX21_TSHR_Antagonist_ch2>  (24) 
0.0

>  <TOX21_TSHR_Antagonist_ratio>  (24) 
1.0

>  <TOX21_TSHR_HTRF_Agonist_ch1>  (24) 
0.0

>  <TOX21_TSHR_HTRF_Antagonist_ch1>  (24) 
1.0

>  <TOX21_TSHR_wt_HTRF_ch1>  (24) 
0.0

>  <TOX21_TSHR_wt_ch2>  (24) 
0.0

>  <TOX21_TSHR_wt_ratio>  (24) 
0.0

>  <TOX21_VDR_BLA_Agonist_viability>  (24) 
1.0

>  <TOX21_VDR_BLA_Antagonist_ch1>  (24) 
0.0

>  <TOX21_VDR_BLA_Antagonist_ch2>  (24) 
0.0

>  <TOX21_VDR_BLA_agonist_ch1>  (24) 
0.0

>  <TOX21_VDR_BLA_agonist_ch2>  (24) 
0.0

>  <TOX21_VDR_BLA_agonist_ratio>  (24) 
0.0

>  <TOX21_VDR_BLA_antagonist_ratio>  (24) 
0.0

>  <TOX21_VDR_BLA_antagonist_viability>  (24) 
0.0

>  <TOX21_p53_BLA_p1_ch1>  (24) 
1.0

>  <TOX21_p53_BLA_p1_ch2>  (24) 
0.0

>  <TOX21_p53_BLA_p1_ratio>  (24) 
0.0

>  <TOX21_p53_BLA_p1_viability>  (24) 
0.0

>  <TOX21_p53_BLA_p2_ch1>  (24) 
1.0

>  <TOX21_p53_BLA_p2_ch2>  (24) 
0.0

>  <TOX21_p53_BLA_p2_ratio>  (24) 
0.0

>  <TOX21_p53_BLA_p2_viability>  (24) 
0.0

>  <TOX21_p53_BLA_p3_ch1>  (24) 
1.0

>  <TOX21_p53_BLA_p3_ch2>  (24) 
0.0

>  <TOX21_p53_BLA_p3_ratio>  (24) 
0.0

>  <TOX21_p53_BLA_p4_ch1>  (24) 
1.0

>  <TOX21_p53_BLA_p4_ch2>  (24) 
0.0

>  <TOX21_p53_BLA_p4_ratio>  (24) 
0.0

>  <TOX21_p53_BLA_p4_viability>  (24) 
0.0

>  <TOX21_p53_BLA_p5_ch1>  (24) 
0.0

>  <TOX21_p53_BLA_p5_ch2>  (24) 
0.0

>  <TOX21_p53_BLA_p5_ratio>  (24) 
0.0

>  <TOX21_p53_BLA_p5_viability>  (24) 
0.0

>  <Tanguay_ZF_120hpf_AXIS_up>  (24) 
0.0

>  <Tanguay_ZF_120hpf_ActivityScore>  (24) 
0.0

>  <Tanguay_ZF_120hpf_BRAI_up>  (24) 
0.0

>  <Tanguay_ZF_120hpf_CFIN_up>  (24) 
0.0

>  <Tanguay_ZF_120hpf_CIRC_up>  (24) 
0.0

>  <Tanguay_ZF_120hpf_EYE_up>  (24) 
0.0

>  <Tanguay_ZF_120hpf_JAW_up>  (24) 
0.0

>  <Tanguay_ZF_120hpf_MORT_up>  (24) 
0.0

>  <Tanguay_ZF_120hpf_NC_up>  (24) 
0.0

>  <Tanguay_ZF_120hpf_OTIC_up>  (24) 
0.0

>  <Tanguay_ZF_120hpf_PE_up>  (24) 
0.0

>  <Tanguay_ZF_120hpf_PFIN_up>  (24) 
0.0

>  <Tanguay_ZF_120hpf_PIG_up>  (24) 
0.0

>  <Tanguay_ZF_120hpf_SNOU_up>  (24) 
0.0

>  <Tanguay_ZF_120hpf_SOMI_up>  (24) 
0.0

>  <Tanguay_ZF_120hpf_SWIM_up>  (24) 
0.0

>  <Tanguay_ZF_120hpf_TRUN_up>  (24) 
0.0

>  <Tanguay_ZF_120hpf_TR_up>  (24) 
0.0

>  <Tanguay_ZF_120hpf_YSE_up>  (24) 
0.0

>  <UPITT_HCI_U2OS_AR_TIF2_Nucleoli_Agonist>  (24) 
0.0

>  <UPITT_HCI_U2OS_AR_TIF2_Nucleoli_Antagonist>  (24) 
1.0

>  <UPITT_HCI_U2OS_AR_TIF2_Nucleoli_Cytoplasm_Ratio_Agonist>  (24) 
0.0

>  <UPITT_HCI_U2OS_AR_TIF2_Nucleoli_Cytoplasm_Ratio_Antagonist>  (24) 
0.0

>  <NVS_NR_mERa>  (24) 
0.0

$$$$

     RDKit          3D

 14 14  0  0  0  0  0  0  0  0999 V2000
    0.0000    0.0000    0.0000 C   0  0  0  0  0  0  0  0  0  0  0  0
    0.0000    0.0000    0.0000 C   0  0  0  0  0  0  0  0  0  0  0  0
    0.0000    0.0000    0.0000 C   0  0  0  0  0  0  0  0  0  0  0  0
    0.0000    0.0000    0.0000 C   0  0  0  0  0  0  0  0  0  0  0  0
    0.0000    0.0000    0.0000 O   0  0  0  0  0  0  0  0  0  0  0  0
    0.0000    0.0000    0.0000 C   0  0  0  0  0  0  0  0  0  0  0  0
    0.0000    0.0000    0.0000 O   0  0  0  0  0  0  0  0  0  0  0  0
    0.0000    0.0000    0.0000 C   0  0  0  0  0  0  0  0  0  0  0  0
    0.0000    0.0000    0.0000 C   0  0  0  0  0  0  0  0  0  0  0  0
    0.0000    0.0000    0.0000 C   0  0  0  0  0  0  0  0  0  0  0  0
    0.0000    0.0000    0.0000 C   0  0  0  0  0  0  0  0  0  0  0  0
    0.0000    0.0000    0.0000 C   0  0  0  0  0  0  0  0  0  0  0  0
    0.0000    0.0000    0.0000 C   0  0  0  0  0  0  0  0  0  0  0  0
    0.0000    0.0000    0.0000 O   0  0  0  0  0  0  0  0  0  0  0  0
  1  2  1  0
  2  3  1  0
  3  4  1  0
  4  5  1  0
  5  6  1  0
  6  7  2  0
  6  8  1  0
  8  9  2  0
  9 10  1  0
 10 11  2  0
 11 12  1  0
 12 13  2  0
 11 14  1  0
 13  8  1  0
M  END
>  <CASRN>  (25) 
94-26-8

>  <Name>  (25) 
Butylparaben

>  <Active>  (25) 
8

>  <Inactive>  (25) 
2

>  <Bioactivity>  (25) 
Active

>  <Min LEL>  (25) 
50.0

>  <Max HDT>  (25) 
1000.0

>  <Class>  (25) 
1

>  <Code>  (25) 
C94268

>  <NVS_NR_hER>  (25) 
1.0

>  <NVS_NR_cAR>  (25) 
0.0

>  <NVS_NR_hGR>  (25) 
0.0

>  <NVS_NR_hPR>  (25) 
0.0

>  <NVS_NR_rAR>  (25) 
0.0

>  <OT_ER_ERaERb_1440>  (25) 
1.0

>  <OT_FXR_FXRSRC1_0480>  (25) 
1.0

>  <OT_PPARg_PPARgSRC1_1440>  (25) 
0.0

>  <OT_FXR_FXRSRC1_1440>  (25) 
1.0

>  <OT_NURR1_NURR1RXRa_0480>  (25) 
0.0

>  <OT_NURR1_NURR1RXRa_1440>  (25) 
0.0

>  <OT_PPARg_PPARgSRC1_0480>  (25) 
0.0

>  <OT_AR_ARELUC_AG_1440>  (25) 
0.0

>  <OT_ERa_EREGFP_0120>  (25) 
0.0

>  <BSK_3C_HLADR_down>  (25) 
0.0

>  <BSK_3C_Vis_down>  (25) 
0.0

>  <BSK_3C_uPAR_down>  (25) 
0.0

>  <ATG_CAR_TRANS_up>  (25) 
0.0

>  <ATG_E2F_CIS_dn>  (25) 
0.0

>  <ATG_EGR_CIS_up>  (25) 
0.0

>  <ATG_ERa_TRANS_dn>  (25) 
0.0

>  <ATG_ERa_TRANS_up>  (25) 
1.0

>  <ATG_FXR_TRANS_dn>  (25) 
0.0

>  <ATG_GLI_CIS_dn>  (25) 
0.0

>  <ATG_GRE_CIS_up>  (25) 
0.0

>  <ATG_LXRa_TRANS_dn>  (25) 
0.0

>  <ATG_LXRa_TRANS_up>  (25) 
0.0

>  <ATG_NRF1_CIS_up>  (25) 
0.0

>  <ATG_NURR1_TRANS_up>  (25) 
0.0

>  <ATG_Sox_CIS_dn>  (25) 
0.0

>  <ATG_Sox_CIS_up>  (25) 
0.0

>  <ATG_Sp1_CIS_up>  (25) 
0.0

>  <ATG_TGFb_CIS_up>  (25) 
0.0

>  <TOX21_ARE_BLA_agonist_ratio>  (25) 
0.0

>  <TOX21_RAR_LUC_Antagonist>  (25) 
0.0

>  <ATG_LXRb_TRANS_dn>  (25) 
0.0

>  <ATG_CAR_TRANS_dn>  (25) 
0.0

>  <ATG_BRE_CIS_dn>  (25) 
0.0

>  <ATG_E2F_CIS_up>  (25) 
0.0

>  <TOX21_TSHR_Agonist_ratio>  (25) 
0.0

>  <ACEA_ER_80hr>  (25) 
1.0

>  <TOX21_CAR_Agonist_viabillity>  (25) 
0.0

>  <TOX21_PR_BLA_Agonist_viability>  (25) 
0.0

>  <TOX21_RT_HEPG2_FLO_40hr_ctrl_viability>  (25) 
1.0

>  <TOX21_AhR_LUC_Agonist_viability>  (25) 
0.0

>  <TOX21_ERR_viability>  (25) 
0.0

>  <TOX21_p53_BLA_p3_viability>  (25) 
0.0

>  <NVS_NR_hAR>  (25) 
0.0

>  <NVS_NR_bER>  (25) 
1.0

>  <ACEA_AR_agonist_80hr>  (25) 
0.0

>  <ACEA_AR_agonist_AUC_viability>  (25) 
1.0

>  <ACEA_AR_antagonist_80hr>  (25) 
1.0

>  <ACEA_AR_antagonist_AUC_viability>  (25) 
1.0

>  <ACEA_ER_AUC_viability>  (25) 
0.0

>  <APR_HepG2_CellCycleArrest_24h_dn>  (25) 
0.0

>  <APR_HepG2_CellCycleArrest_24h_up>  (25) 
0.0

>  <APR_HepG2_CellCycleArrest_72h_dn>  (25) 
0.0

>  <APR_HepG2_CellCycleArrest_72h_up>  (25) 
0.0

>  <APR_HepG2_CellLoss_24h_dn>  (25) 
0.0

>  <APR_HepG2_CellLoss_24h_up>  (25) 
0.0

>  <APR_HepG2_CellLoss_72h_dn>  (25) 
0.0

>  <APR_HepG2_CellLoss_72h_up>  (25) 
0.0

>  <APR_HepG2_MicrotubuleCSK_24h_dn>  (25) 
0.0

>  <APR_HepG2_MicrotubuleCSK_24h_up>  (25) 
0.0

>  <APR_HepG2_MicrotubuleCSK_72h_dn>  (25) 
0.0

>  <APR_HepG2_MicrotubuleCSK_72h_up>  (25) 
0.0

>  <APR_HepG2_MitoMass_24h_dn>  (25) 
0.0

>  <APR_HepG2_MitoMass_24h_up>  (25) 
0.0

>  <APR_HepG2_MitoMass_72h_dn>  (25) 
0.0

>  <APR_HepG2_MitoMass_72h_up>  (25) 
0.0

>  <APR_HepG2_MitoMembPot_24h_dn>  (25) 
0.0

>  <APR_HepG2_MitoMembPot_24h_up>  (25) 
0.0

>  <APR_HepG2_MitoMembPot_72h_dn>  (25) 
0.0

>  <APR_HepG2_MitoMembPot_72h_up>  (25) 
0.0

>  <APR_HepG2_MitoticArrest_24h_dn>  (25) 
0.0

>  <APR_HepG2_MitoticArrest_24h_up>  (25) 
0.0

>  <APR_HepG2_MitoticArrest_72h_dn>  (25) 
0.0

>  <APR_HepG2_MitoticArrest_72h_up>  (25) 
0.0

>  <APR_HepG2_NuclearSize_24h_dn>  (25) 
0.0

>  <APR_HepG2_NuclearSize_24h_up>  (25) 
0.0

>  <APR_HepG2_NuclearSize_72h_dn>  (25) 
0.0

>  <APR_HepG2_NuclearSize_72h_up>  (25) 
0.0

>  <APR_HepG2_OxidativeStress_24h_dn>  (25) 
0.0

>  <APR_HepG2_OxidativeStress_24h_up>  (25) 
0.0

>  <APR_HepG2_OxidativeStress_72h_dn>  (25) 
0.0

>  <APR_HepG2_OxidativeStress_72h_up>  (25) 
0.0

>  <APR_HepG2_StressKinase_24h_dn>  (25) 
0.0

>  <APR_HepG2_StressKinase_24h_up>  (25) 
0.0

>  <APR_HepG2_StressKinase_72h_dn>  (25) 
0.0

>  <APR_HepG2_StressKinase_72h_up>  (25) 
0.0

>  <APR_HepG2_p53Act_24h_dn>  (25) 
0.0

>  <APR_HepG2_p53Act_24h_up>  (25) 
0.0

>  <APR_HepG2_p53Act_72h_dn>  (25) 
0.0

>  <APR_HepG2_p53Act_72h_up>  (25) 
0.0

>  <ATG_AP_1_CIS_dn>  (25) 
0.0

>  <ATG_AP_1_CIS_up>  (25) 
0.0

>  <ATG_AP_2_CIS_dn>  (25) 
0.0

>  <ATG_AP_2_CIS_up>  (25) 
0.0

>  <ATG_AR_TRANS_dn>  (25) 
0.0

>  <ATG_AR_TRANS_up>  (25) 
0.0

>  <ATG_Ahr_CIS_dn>  (25) 
0.0

>  <ATG_Ahr_CIS_up>  (25) 
0.0

>  <ATG_BRE_CIS_up>  (25) 
1.0

>  <ATG_CMV_CIS_dn>  (25) 
0.0

>  <ATG_CMV_CIS_up>  (25) 
1.0

>  <ATG_CRE_CIS_dn>  (25) 
0.0

>  <ATG_CRE_CIS_up>  (25) 
0.0

>  <ATG_C_EBP_CIS_dn>  (25) 
0.0

>  <ATG_C_EBP_CIS_up>  (25) 
0.0

>  <ATG_DR4_LXR_CIS_dn>  (25) 
0.0

>  <ATG_DR4_LXR_CIS_up>  (25) 
0.0

>  <ATG_DR5_CIS_dn>  (25) 
0.0

>  <ATG_DR5_CIS_up>  (25) 
0.0

>  <ATG_EGR_CIS_dn>  (25) 
0.0

>  <ATG_ERE_CIS_dn>  (25) 
0.0

>  <ATG_ERE_CIS_up>  (25) 
1.0

>  <ATG_ERRa_TRANS_dn>  (25) 
0.0

>  <ATG_ERRa_TRANS_up>  (25) 
0.0

>  <ATG_ERRg_TRANS_dn>  (25) 
0.0

>  <ATG_ERRg_TRANS_up>  (25) 
0.0

>  <ATG_E_Box_CIS_dn>  (25) 
0.0

>  <ATG_E_Box_CIS_up>  (25) 
1.0

>  <ATG_Ets_CIS_dn>  (25) 
0.0

>  <ATG_Ets_CIS_up>  (25) 
0.0

>  <ATG_FXR_TRANS_up>  (25) 
0.0

>  <ATG_FoxA2_CIS_dn>  (25) 
0.0

>  <ATG_FoxA2_CIS_up>  (25) 
0.0

>  <ATG_FoxO_CIS_dn>  (25) 
0.0

>  <ATG_FoxO_CIS_up>  (25) 
0.0

>  <ATG_GAL4_TRANS_dn>  (25) 
0.0

>  <ATG_GAL4_TRANS_up>  (25) 
0.0

>  <ATG_GATA_CIS_dn>  (25) 
0.0

>  <ATG_GATA_CIS_up>  (25) 
0.0

>  <ATG_GLI_CIS_up>  (25) 
0.0

>  <ATG_GRE_CIS_dn>  (25) 
0.0

>  <ATG_GR_TRANS_dn>  (25) 
0.0

>  <ATG_GR_TRANS_up>  (25) 
0.0

>  <ATG_HIF1a_CIS_dn>  (25) 
0.0

>  <ATG_HIF1a_CIS_up>  (25) 
0.0

>  <ATG_HNF4a_TRANS_dn>  (25) 
0.0

>  <ATG_HNF4a_TRANS_up>  (25) 
0.0

>  <ATG_HNF6_CIS_dn>  (25) 
0.0

>  <ATG_HNF6_CIS_up>  (25) 
0.0

>  <ATG_HSE_CIS_dn>  (25) 
0.0

>  <ATG_HSE_CIS_up>  (25) 
0.0

>  <ATG_IR1_CIS_dn>  (25) 
0.0

>  <ATG_IR1_CIS_up>  (25) 
0.0

>  <ATG_ISRE_CIS_dn>  (25) 
1.0

>  <ATG_ISRE_CIS_up>  (25) 
0.0

>  <ATG_LXRb_TRANS_up>  (25) 
0.0

>  <ATG_MRE_CIS_dn>  (25) 
0.0

>  <ATG_MRE_CIS_up>  (25) 
1.0

>  <ATG_M_06_CIS_dn>  (25) 
0.0

>  <ATG_M_06_CIS_up>  (25) 
0.0

>  <ATG_M_06_TRANS_dn>  (25) 
0.0

>  <ATG_M_06_TRANS_up>  (25) 
0.0

>  <ATG_M_19_CIS_dn>  (25) 
0.0

>  <ATG_M_19_CIS_up>  (25) 
0.0

>  <ATG_M_19_TRANS_dn>  (25) 
0.0

>  <ATG_M_19_TRANS_up>  (25) 
0.0

>  <ATG_M_32_CIS_dn>  (25) 
0.0

>  <ATG_M_32_CIS_up>  (25) 
0.0

>  <ATG_M_32_TRANS_dn>  (25) 
0.0

>  <ATG_M_32_TRANS_up>  (25) 
0.0

>  <ATG_M_61_CIS_dn>  (25) 
0.0

>  <ATG_M_61_CIS_up>  (25) 
0.0

>  <ATG_M_61_TRANS_dn>  (25) 
0.0

>  <ATG_M_61_TRANS_up>  (25) 
0.0

>  <ATG_Myb_CIS_dn>  (25) 
0.0

>  <ATG_Myb_CIS_up>  (25) 
0.0

>  <ATG_Myc_CIS_dn>  (25) 
0.0

>  <ATG_Myc_CIS_up>  (25) 
0.0

>  <ATG_NFI_CIS_dn>  (25) 
0.0

>  <ATG_NFI_CIS_up>  (25) 
0.0

>  <ATG_NF_kB_CIS_dn>  (25) 
0.0

>  <ATG_NF_kB_CIS_up>  (25) 
0.0

>  <ATG_NRF1_CIS_dn>  (25) 
1.0

>  <ATG_NRF2_ARE_CIS_dn>  (25) 
0.0

>  <ATG_NRF2_ARE_CIS_up>  (25) 
1.0

>  <ATG_NURR1_TRANS_dn>  (25) 
0.0

>  <ATG_Oct_MLP_CIS_dn>  (25) 
0.0

>  <ATG_Oct_MLP_CIS_up>  (25) 
0.0

>  <ATG_PBREM_CIS_dn>  (25) 
0.0

>  <ATG_PBREM_CIS_up>  (25) 
1.0

>  <ATG_PPARa_TRANS_dn>  (25) 
0.0

>  <ATG_PPARa_TRANS_up>  (25) 
0.0

>  <ATG_PPARd_TRANS_dn>  (25) 
0.0

>  <ATG_PPARd_TRANS_up>  (25) 
0.0

>  <ATG_PPARg_TRANS_dn>  (25) 
0.0

>  <ATG_PPARg_TRANS_up>  (25) 
1.0

>  <ATG_PPRE_CIS_dn>  (25) 
0.0

>  <ATG_PPRE_CIS_up>  (25) 
1.0

>  <ATG_PXRE_CIS_dn>  (25) 
0.0

>  <ATG_PXRE_CIS_up>  (25) 
1.0

>  <ATG_PXR_TRANS_dn>  (25) 
0.0

>  <ATG_PXR_TRANS_up>  (25) 
1.0

>  <ATG_Pax6_CIS_dn>  (25) 
0.0

>  <ATG_Pax6_CIS_up>  (25) 
0.0

>  <ATG_RARa_TRANS_dn>  (25) 
1.0

>  <ATG_RARa_TRANS_up>  (25) 
0.0

>  <ATG_RARb_TRANS_dn>  (25) 
0.0

>  <ATG_RARb_TRANS_up>  (25) 
0.0

>  <ATG_RARg_TRANS_dn>  (25) 
0.0

>  <ATG_RARg_TRANS_up>  (25) 
0.0

>  <ATG_RORE_CIS_dn>  (25) 
0.0

>  <ATG_RORE_CIS_up>  (25) 
1.0

>  <ATG_RORb_TRANS_dn>  (25) 
0.0

>  <ATG_RORb_TRANS_up>  (25) 
0.0

>  <ATG_RORg_TRANS_dn>  (25) 
0.0

>  <ATG_RORg_TRANS_up>  (25) 
0.0

>  <ATG_RXRa_TRANS_dn>  (25) 
0.0

>  <ATG_RXRa_TRANS_up>  (25) 
0.0

>  <ATG_RXRb_TRANS_dn>  (25) 
0.0

>  <ATG_RXRb_TRANS_up>  (25) 
1.0

>  <ATG_SREBP_CIS_dn>  (25) 
0.0

>  <ATG_SREBP_CIS_up>  (25) 
0.0

>  <ATG_STAT3_CIS_dn>  (25) 
0.0

>  <ATG_STAT3_CIS_up>  (25) 
0.0

>  <ATG_Sp1_CIS_dn>  (25) 
0.0

>  <ATG_TAL_CIS_dn>  (25) 
0.0

>  <ATG_TAL_CIS_up>  (25) 
0.0

>  <ATG_TA_CIS_dn>  (25) 
0.0

>  <ATG_TA_CIS_up>  (25) 
0.0

>  <ATG_TCF_b_cat_CIS_dn>  (25) 
1.0

>  <ATG_TCF_b_cat_CIS_up>  (25) 
0.0

>  <ATG_TGFb_CIS_dn>  (25) 
0.0

>  <ATG_THRa1_TRANS_dn>  (25) 
0.0

>  <ATG_THRa1_TRANS_up>  (25) 
0.0

>  <ATG_VDRE_CIS_dn>  (25) 
0.0

>  <ATG_VDRE_CIS_up>  (25) 
1.0

>  <ATG_VDR_TRANS_dn>  (25) 
0.0

>  <ATG_VDR_TRANS_up>  (25) 
0.0

>  <ATG_XTT_Cytotoxicity_up>  (25) 
0.0

>  <ATG_Xbp1_CIS_dn>  (25) 
0.0

>  <ATG_Xbp1_CIS_up>  (25) 
0.0

>  <ATG_p53_CIS_dn>  (25) 
0.0

>  <ATG_p53_CIS_up>  (25) 
0.0

>  <BSK_3C_Eselectin_down>  (25) 
0.0

>  <BSK_3C_Eselectin_up>  (25) 
0.0

>  <BSK_3C_HLADR_up>  (25) 
0.0

>  <BSK_3C_ICAM1_down>  (25) 
0.0

>  <BSK_3C_ICAM1_up>  (25) 
0.0

>  <BSK_3C_IL8_down>  (25) 
0.0

>  <BSK_3C_IL8_up>  (25) 
0.0

>  <BSK_3C_MCP1_down>  (25) 
0.0

>  <BSK_3C_MCP1_up>  (25) 
0.0

>  <BSK_3C_MIG_down>  (25) 
0.0

>  <BSK_3C_MIG_up>  (25) 
0.0

>  <BSK_3C_Proliferation_down>  (25) 
0.0

>  <BSK_3C_Proliferation_up>  (25) 
0.0

>  <BSK_3C_SRB_down>  (25) 
0.0

>  <BSK_3C_SRB_up>  (25) 
0.0

>  <BSK_3C_Thrombomodulin_down>  (25) 
0.0

>  <BSK_3C_Thrombomodulin_up>  (25) 
0.0

>  <BSK_3C_TissueFactor_down>  (25) 
1.0

>  <BSK_3C_TissueFactor_up>  (25) 
0.0

>  <BSK_3C_VCAM1_down>  (25) 
0.0

>  <BSK_3C_VCAM1_up>  (25) 
0.0

>  <BSK_3C_Vis_up>  (25) 
0.0

>  <BSK_3C_uPAR_up>  (25) 
0.0

>  <BSK_4H_Eotaxin3_down>  (25) 
0.0

>  <BSK_4H_Eotaxin3_up>  (25) 
0.0

>  <BSK_4H_MCP1_down>  (25) 
0.0

>  <BSK_4H_MCP1_up>  (25) 
0.0

>  <BSK_4H_Pselectin_down>  (25) 
0.0

>  <BSK_4H_Pselectin_up>  (25) 
0.0

>  <BSK_4H_SRB_down>  (25) 
0.0

>  <BSK_4H_SRB_up>  (25) 
0.0

>  <BSK_4H_VCAM1_down>  (25) 
0.0

>  <BSK_4H_VCAM1_up>  (25) 
0.0

>  <BSK_4H_VEGFRII_down>  (25) 
0.0

>  <BSK_4H_VEGFRII_up>  (25) 
0.0

>  <BSK_4H_uPAR_down>  (25) 
0.0

>  <BSK_4H_uPAR_up>  (25) 
0.0

>  <BSK_BE3C_HLADR_down>  (25) 
0.0

>  <BSK_BE3C_HLADR_up>  (25) 
0.0

>  <BSK_BE3C_IL1a_down>  (25) 
0.0

>  <BSK_BE3C_IL1a_up>  (25) 
0.0

>  <BSK_BE3C_IP10_down>  (25) 
0.0

>  <BSK_BE3C_IP10_up>  (25) 
0.0

>  <BSK_BE3C_MIG_down>  (25) 
0.0

>  <BSK_BE3C_MIG_up>  (25) 
0.0

>  <BSK_BE3C_MMP1_down>  (25) 
0.0

>  <BSK_BE3C_MMP1_up>  (25) 
0.0

>  <BSK_BE3C_PAI1_down>  (25) 
0.0

>  <BSK_BE3C_PAI1_up>  (25) 
0.0

>  <BSK_BE3C_SRB_down>  (25) 
0.0

>  <BSK_BE3C_SRB_up>  (25) 
0.0

>  <BSK_BE3C_TGFb1_down>  (25) 
0.0

>  <BSK_BE3C_TGFb1_up>  (25) 
0.0

>  <BSK_BE3C_tPA_down>  (25) 
0.0

>  <BSK_BE3C_tPA_up>  (25) 
0.0

>  <BSK_BE3C_uPAR_down>  (25) 
0.0

>  <BSK_BE3C_uPAR_up>  (25) 
0.0

>  <BSK_BE3C_uPA_down>  (25) 
0.0

>  <BSK_BE3C_uPA_up>  (25) 
0.0

>  <BSK_CASM3C_HLADR_down>  (25) 
0.0

>  <BSK_CASM3C_HLADR_up>  (25) 
0.0

>  <BSK_CASM3C_IL6_down>  (25) 
0.0

>  <BSK_CASM3C_IL6_up>  (25) 
0.0

>  <BSK_CASM3C_IL8_down>  (25) 
0.0

>  <BSK_CASM3C_IL8_up>  (25) 
0.0

>  <BSK_CASM3C_LDLR_down>  (25) 
0.0

>  <BSK_CASM3C_LDLR_up>  (25) 
0.0

>  <BSK_CASM3C_MCP1_down>  (25) 
0.0

>  <BSK_CASM3C_MCP1_up>  (25) 
0.0

>  <BSK_CASM3C_MCSF_down>  (25) 
0.0

>  <BSK_CASM3C_MCSF_up>  (25) 
0.0

>  <BSK_CASM3C_MIG_down>  (25) 
0.0

>  <BSK_CASM3C_MIG_up>  (25) 
0.0

>  <BSK_CASM3C_Proliferation_down>  (25) 
0.0

>  <BSK_CASM3C_Proliferation_up>  (25) 
0.0

>  <BSK_CASM3C_SAA_down>  (25) 
0.0

>  <BSK_CASM3C_SAA_up>  (25) 
0.0

>  <BSK_CASM3C_SRB_down>  (25) 
0.0

>  <BSK_CASM3C_SRB_up>  (25) 
0.0

>  <BSK_CASM3C_Thrombomodulin_down>  (25) 
0.0

>  <BSK_CASM3C_Thrombomodulin_up>  (25) 
0.0

>  <BSK_CASM3C_TissueFactor_down>  (25) 
0.0

>  <BSK_CASM3C_TissueFactor_up>  (25) 
0.0

>  <BSK_CASM3C_VCAM1_down>  (25) 
0.0

>  <BSK_CASM3C_VCAM1_up>  (25) 
0.0

>  <BSK_CASM3C_uPAR_down>  (25) 
0.0

>  <BSK_CASM3C_uPAR_up>  (25) 
0.0

>  <BSK_KF3CT_ICAM1_down>  (25) 
0.0

>  <BSK_KF3CT_ICAM1_up>  (25) 
0.0

>  <BSK_KF3CT_IL1a_down>  (25) 
0.0

>  <BSK_KF3CT_IL1a_up>  (25) 
0.0

>  <BSK_KF3CT_IP10_down>  (25) 
0.0

>  <BSK_KF3CT_IP10_up>  (25) 
0.0

>  <BSK_KF3CT_MCP1_down>  (25) 
0.0

>  <BSK_KF3CT_MCP1_up>  (25) 
0.0

>  <BSK_KF3CT_MMP9_down>  (25) 
0.0

>  <BSK_KF3CT_MMP9_up>  (25) 
0.0

>  <BSK_KF3CT_SRB_down>  (25) 
0.0

>  <BSK_KF3CT_SRB_up>  (25) 
0.0

>  <BSK_KF3CT_TGFb1_down>  (25) 
0.0

>  <BSK_KF3CT_TGFb1_up>  (25) 
0.0

>  <BSK_KF3CT_TIMP2_down>  (25) 
0.0

>  <BSK_KF3CT_TIMP2_up>  (25) 
0.0

>  <BSK_KF3CT_uPA_down>  (25) 
0.0

>  <BSK_KF3CT_uPA_up>  (25) 
0.0

>  <BSK_LPS_CD40_down>  (25) 
0.0

>  <BSK_LPS_CD40_up>  (25) 
0.0

>  <BSK_LPS_Eselectin_down>  (25) 
0.0

>  <BSK_LPS_Eselectin_up>  (25) 
0.0

>  <BSK_LPS_IL1a_down>  (25) 
0.0

>  <BSK_LPS_IL1a_up>  (25) 
0.0

>  <BSK_LPS_IL8_down>  (25) 
0.0

>  <BSK_LPS_IL8_up>  (25) 
0.0

>  <BSK_LPS_MCP1_down>  (25) 
0.0

>  <BSK_LPS_MCP1_up>  (25) 
0.0

>  <BSK_LPS_MCSF_down>  (25) 
0.0

>  <BSK_LPS_MCSF_up>  (25) 
0.0

>  <BSK_LPS_PGE2_down>  (25) 
1.0

>  <BSK_LPS_PGE2_up>  (25) 
0.0

>  <BSK_LPS_SRB_down>  (25) 
0.0

>  <BSK_LPS_SRB_up>  (25) 
0.0

>  <BSK_LPS_TNFa_down>  (25) 
0.0

>  <BSK_LPS_TNFa_up>  (25) 
0.0

>  <BSK_LPS_TissueFactor_down>  (25) 
0.0

>  <BSK_LPS_TissueFactor_up>  (25) 
0.0

>  <BSK_LPS_VCAM1_down>  (25) 
0.0

>  <BSK_LPS_VCAM1_up>  (25) 
0.0

>  <BSK_SAg_CD38_down>  (25) 
0.0

>  <BSK_SAg_CD38_up>  (25) 
0.0

>  <BSK_SAg_CD40_down>  (25) 
0.0

>  <BSK_SAg_CD40_up>  (25) 
0.0

>  <BSK_SAg_CD69_down>  (25) 
0.0

>  <BSK_SAg_CD69_up>  (25) 
0.0

>  <BSK_SAg_Eselectin_down>  (25) 
0.0

>  <BSK_SAg_Eselectin_up>  (25) 
0.0

>  <BSK_SAg_IL8_down>  (25) 
0.0

>  <BSK_SAg_IL8_up>  (25) 
0.0

>  <BSK_SAg_MCP1_down>  (25) 
0.0

>  <BSK_SAg_MCP1_up>  (25) 
0.0

>  <BSK_SAg_MIG_down>  (25) 
0.0

>  <BSK_SAg_MIG_up>  (25) 
0.0

>  <BSK_SAg_PBMCCytotoxicity_down>  (25) 
0.0

>  <BSK_SAg_PBMCCytotoxicity_up>  (25) 
0.0

>  <BSK_SAg_Proliferation_down>  (25) 
0.0

>  <BSK_SAg_Proliferation_up>  (25) 
0.0

>  <BSK_SAg_SRB_down>  (25) 
0.0

>  <BSK_SAg_SRB_up>  (25) 
0.0

>  <BSK_hDFCGF_CollagenIII_down>  (25) 
0.0

>  <BSK_hDFCGF_CollagenIII_up>  (25) 
0.0

>  <BSK_hDFCGF_EGFR_down>  (25) 
0.0

>  <BSK_hDFCGF_EGFR_up>  (25) 
0.0

>  <BSK_hDFCGF_IL8_down>  (25) 
0.0

>  <BSK_hDFCGF_IL8_up>  (25) 
0.0

>  <BSK_hDFCGF_IP10_down>  (25) 
0.0

>  <BSK_hDFCGF_IP10_up>  (25) 
0.0

>  <BSK_hDFCGF_MCSF_down>  (25) 
0.0

>  <BSK_hDFCGF_MCSF_up>  (25) 
0.0

>  <BSK_hDFCGF_MIG_down>  (25) 
0.0

>  <BSK_hDFCGF_MIG_up>  (25) 
0.0

>  <BSK_hDFCGF_MMP1_down>  (25) 
0.0

>  <BSK_hDFCGF_MMP1_up>  (25) 
0.0

>  <BSK_hDFCGF_PAI1_down>  (25) 
0.0

>  <BSK_hDFCGF_PAI1_up>  (25) 
0.0

>  <BSK_hDFCGF_Proliferation_down>  (25) 
1.0

>  <BSK_hDFCGF_Proliferation_up>  (25) 
0.0

>  <BSK_hDFCGF_SRB_down>  (25) 
0.0

>  <BSK_hDFCGF_SRB_up>  (25) 
0.0

>  <BSK_hDFCGF_TIMP1_down>  (25) 
0.0

>  <BSK_hDFCGF_TIMP1_up>  (25) 
0.0

>  <BSK_hDFCGF_VCAM1_down>  (25) 
0.0

>  <BSK_hDFCGF_VCAM1_up>  (25) 
0.0

>  <CEETOX_H295R_11DCORT_dn>  (25) 
0.0

>  <CEETOX_H295R_11DCORT_up>  (25) 
0.0

>  <CEETOX_H295R_ANDR_dn>  (25) 
0.0

>  <CEETOX_H295R_ANDR_up>  (25) 
0.0

>  <CEETOX_H295R_CORTIC_dn>  (25) 
0.0

>  <CEETOX_H295R_CORTIC_up>  (25) 
0.0

>  <CEETOX_H295R_CORTISOL_dn>  (25) 
0.0

>  <CEETOX_H295R_CORTISOL_up>  (25) 
0.0

>  <CEETOX_H295R_DOC_dn>  (25) 
0.0

>  <CEETOX_H295R_DOC_up>  (25) 
0.0

>  <CEETOX_H295R_ESTRADIOL_dn>  (25) 
0.0

>  <CEETOX_H295R_ESTRADIOL_up>  (25) 
0.0

>  <CEETOX_H295R_ESTRONE_dn>  (25) 
0.0

>  <CEETOX_H295R_ESTRONE_up>  (25) 
0.0

>  <CEETOX_H295R_MTT_cell_viability_dn>  (25) 
0.0

>  <CEETOX_H295R_MTT_cell_viability_up>  (25) 
0.0

>  <CEETOX_H295R_OHPREG_dn>  (25) 
0.0

>  <CEETOX_H295R_OHPREG_up>  (25) 
0.0

>  <CEETOX_H295R_OHPROG_dn>  (25) 
0.0

>  <CEETOX_H295R_OHPROG_up>  (25) 
1.0

>  <CEETOX_H295R_PROG_dn>  (25) 
0.0

>  <CEETOX_H295R_PROG_up>  (25) 
1.0

>  <CEETOX_H295R_TESTO_dn>  (25) 
0.0

>  <CEETOX_H295R_TESTO_up>  (25) 
0.0

>  <NHEERL_ZF_144hpf_TERATOSCORE_up>  (25) 
1.0

>  <NIS_HEK293T_CTG_Cytotoxicity>  (25) 
1.0

>  <NIS_RAIU_inhibition>  (25) 
0.0

>  <NVS_ADME_hCYP1A2>  (25) 
1.0

>  <NVS_ADME_hCYP1A2_Activator>  (25) 
0.0

>  <NVS_ADME_hCYP2B6>  (25) 
1.0

>  <NVS_ADME_hCYP2B6_Activator>  (25) 
0.0

>  <NVS_ADME_hCYP2C19>  (25) 
1.0

>  <NVS_ADME_hCYP2C19_Activator>  (25) 
0.0

>  <NVS_ADME_hCYP2C9>  (25) 
1.0

>  <NVS_ADME_hCYP2C9_Activator>  (25) 
0.0

>  <NVS_ADME_hCYP2D6>  (25) 
1.0

>  <NVS_ADME_hCYP2D6_Activator>  (25) 
0.0

>  <NVS_ENZ_hBACE>  (25) 
0.0

>  <NVS_ENZ_hBACE_Activator>  (25) 
0.0

>  <NVS_ENZ_hCASP2>  (25) 
0.0

>  <NVS_ENZ_hCASP2_Activator>  (25) 
0.0

>  <NVS_ENZ_hES>  (25) 
0.0

>  <NVS_ENZ_hES_Activator>  (25) 
0.0

>  <NVS_ENZ_hMMP13>  (25) 
1.0

>  <NVS_ENZ_hMMP13_Activator>  (25) 
0.0

>  <NVS_ENZ_hMMP3>  (25) 
0.0

>  <NVS_ENZ_hMMP3_Activator>  (25) 
0.0

>  <NVS_ENZ_hVEGFR2>  (25) 
0.0

>  <NVS_ENZ_hVEGFR2_Activator>  (25) 
0.0

>  <NVS_ENZ_oCOX2>  (25) 
1.0

>  <NVS_ENZ_oCOX2_Activator>  (25) 
0.0

>  <NVS_ENZ_rCNOS>  (25) 
0.0

>  <NVS_ENZ_rCNOS_Activator>  (25) 
0.0

>  <NVS_ENZ_rMAOAC>  (25) 
1.0

>  <NVS_ENZ_rMAOAC_Activator>  (25) 
0.0

>  <NVS_GPCR_gOpiateK>  (25) 
0.0

>  <NVS_GPCR_hAdoRA1>  (25) 
1.0

>  <NVS_GPCR_p5HT2C>  (25) 
1.0

>  <NVS_GPCR_rAdra1B>  (25) 
0.0

>  <NVS_GPCR_rOpiate_NonSelectiveNa>  (25) 
1.0

>  <NVS_IC_rCaChN>  (25) 
0.0

>  <NVS_LGIC_bGABARa1>  (25) 
1.0

>  <NVS_LGIC_rAMPA>  (25) 
0.0

>  <NVS_MP_hPBR>  (25) 
1.0

>  <NVS_MP_rPBR>  (25) 
1.0

>  <NVS_NR_bPR>  (25) 
0.0

>  <NVS_NR_hCAR_Agonist>  (25) 
0.0

>  <NVS_NR_hFXR_Agonist>  (25) 
0.0

>  <NVS_NR_hPPARa>  (25) 
0.0

>  <NVS_NR_hPPARg>  (25) 
0.0

>  <NVS_NR_hPXR>  (25) 
0.0

>  <NVS_OR_gSIGMA_NonSelective>  (25) 
1.0

>  <NVS_TR_gDAT>  (25) 
1.0

>  <NVS_TR_hNET>  (25) 
1.0

>  <OT_AR_ARSRC1_0480>  (25) 
0.0

>  <OT_AR_ARSRC1_0960>  (25) 
0.0

>  <OT_ER_ERaERa_0480>  (25) 
1.0

>  <OT_ER_ERaERa_1440>  (25) 
1.0

>  <OT_ER_ERaERb_0480>  (25) 
1.0

>  <OT_ER_ERbERb_0480>  (25) 
1.0

>  <OT_ER_ERbERb_1440>  (25) 
1.0

>  <OT_ERa_EREGFP_0480>  (25) 
0.0

>  <TOX21_AP1_BLA_Agonist_ch1>  (25) 
0.0

>  <TOX21_AP1_BLA_Agonist_ch2>  (25) 
0.0

>  <TOX21_AP1_BLA_Agonist_ratio>  (25) 
0.0

>  <TOX21_AP1_BLA_Agonist_viability>  (25) 
0.0

>  <TOX21_ARE_BLA_Agonist_ch1>  (25) 
0.0

>  <TOX21_ARE_BLA_Agonist_ch2>  (25) 
0.0

>  <TOX21_ARE_BLA_agonist_viability>  (25) 
0.0

>  <TOX21_AR_BLA_Agonist_ch1>  (25) 
0.0

>  <TOX21_AR_BLA_Agonist_ch2>  (25) 
0.0

>  <TOX21_AR_BLA_Agonist_ratio>  (25) 
0.0

>  <TOX21_AR_BLA_Antagonist_ch1>  (25) 
0.0

>  <TOX21_AR_BLA_Antagonist_ch2>  (25) 
0.0

>  <TOX21_AR_BLA_Antagonist_ratio>  (25) 
1.0

>  <TOX21_AR_BLA_Antagonist_viability>  (25) 
0.0

>  <TOX21_AR_LUC_MDAKB2_Agonist>  (25) 
0.0

>  <TOX21_AR_LUC_MDAKB2_Agonist_3uM_Nilutamide>  (25) 
0.0

>  <TOX21_AR_LUC_MDAKB2_Agonist_3uM_Nilutamide_viability>  (25) 
0.0

>  <TOX21_AR_LUC_MDAKB2_Antagonist_0.5nM_R1881>  (25) 
0.0

>  <TOX21_AR_LUC_MDAKB2_Antagonist_0.5nM_R1881_viability>  (25) 
0.0

>  <TOX21_AR_LUC_MDAKB2_Antagonist_10nM_R1881>  (25) 
0.0

>  <TOX21_AR_LUC_MDAKB2_Antagonist_10nM_R1881_viability>  (25) 
0.0

>  <TOX21_AhR_LUC_Agonist>  (25) 
0.0

>  <TOX21_Aromatase_Inhibition>  (25) 
0.0

>  <TOX21_Aromatase_Inhibition_viability>  (25) 
0.0

>  <TOX21_AutoFluor_HEK293_Cell_blue>  (25) 
0.0

>  <TOX21_AutoFluor_HEK293_Cell_green>  (25) 
0.0

>  <TOX21_AutoFluor_HEK293_Cell_red>  (25) 
0.0

>  <TOX21_AutoFluor_HEK293_Media_blue>  (25) 
0.0

>  <TOX21_AutoFluor_HEK293_Media_green>  (25) 
0.0

>  <TOX21_AutoFluor_HEK293_Media_red>  (25) 
0.0

>  <TOX21_AutoFluor_HEPG2_Cell_blue>  (25) 
0.0

>  <TOX21_AutoFluor_HEPG2_Cell_green>  (25) 
0.0

>  <TOX21_AutoFluor_HEPG2_Cell_red>  (25) 
0.0

>  <TOX21_AutoFluor_HEPG2_Media_blue>  (25) 
0.0

>  <TOX21_AutoFluor_HEPG2_Media_green>  (25) 
0.0

>  <TOX21_AutoFluor_HEPG2_Media_red>  (25) 
0.0

>  <TOX21_CAR_Agonist>  (25) 
1.0

>  <TOX21_CAR_Antagonist>  (25) 
0.0

>  <TOX21_CAR_Antagonist_viability>  (25) 
0.0

>  <TOX21_CASP3_CHO>  (25) 
0.0

>  <TOX21_CASP3_CHO_viability>  (25) 
0.0

>  <TOX21_CASP3_HEPG2>  (25) 
0.0

>  <TOX21_CASP3_HEPG2_viability>  (25) 
0.0

>  <TOX21_DT40>  (25) 
1.0

>  <TOX21_DT40_100>  (25) 
1.0

>  <TOX21_DT40_657>  (25) 
1.0

>  <TOX21_ELG1_LUC_Agonist>  (25) 
0.0

>  <TOX21_ELG1_LUC_Agonist_viability>  (25) 
0.0

>  <TOX21_ERR_Agonist>  (25) 
1.0

>  <TOX21_ERR_Antagonist>  (25) 
0.0

>  <TOX21_ERa_BLA_Agonist_ch1>  (25) 
1.0

>  <TOX21_ERa_BLA_Agonist_ch2>  (25) 
1.0

>  <TOX21_ERa_BLA_Agonist_ratio>  (25) 
1.0

>  <TOX21_ERa_BLA_Antagonist_ch1>  (25) 
0.0

>  <TOX21_ERa_BLA_Antagonist_ch2>  (25) 
0.0

>  <TOX21_ERa_BLA_Antagonist_ratio>  (25) 
1.0

>  <TOX21_ERa_BLA_Antagonist_viability>  (25) 
0.0

>  <TOX21_ERa_LUC_VM7_Agonist>  (25) 
1.0

>  <TOX21_ERa_LUC_VM7_Agonist_10nM_ICI182780>  (25) 
1.0

>  <TOX21_ERa_LUC_VM7_Agonist_10nM_ICI182780_viability>  (25) 
0.0

>  <TOX21_ERa_LUC_VM7_Antagonist_0.1nM_E2>  (25) 
0.0

>  <TOX21_ERa_LUC_VM7_Antagonist_0.1nM_E2_viability>  (25) 
0.0

>  <TOX21_ERa_LUC_VM7_Antagonist_0.5nM_E2>  (25) 
0.0

>  <TOX21_ERa_LUC_VM7_Antagonist_0.5nM_E2_viability>  (25) 
0.0

>  <TOX21_ERb_BLA_Agonist_ch1>  (25) 
0.0

>  <TOX21_ERb_BLA_Agonist_ch2>  (25) 
0.0

>  <TOX21_ERb_BLA_Agonist_ratio>  (25) 
0.0

>  <TOX21_ERb_BLA_Agonist_viability>  (25) 
0.0

>  <TOX21_ERb_BLA_Antagonist_ch1>  (25) 
0.0

>  <TOX21_ERb_BLA_Antagonist_ch2>  (25) 
1.0

>  <TOX21_ERb_BLA_Antagonist_ratio>  (25) 
1.0

>  <TOX21_ERb_BLA_Antagonist_viability>  (25) 
0.0

>  <TOX21_ESRE_BLA_ch1>  (25) 
0.0

>  <TOX21_ESRE_BLA_ch2>  (25) 
0.0

>  <TOX21_ESRE_BLA_ratio>  (25) 
0.0

>  <TOX21_ESRE_BLA_viability>  (25) 
0.0

>  <TOX21_FXR_BLA_Antagonist_ch1>  (25) 
0.0

>  <TOX21_FXR_BLA_Antagonist_ch2>  (25) 
0.0

>  <TOX21_FXR_BLA_agonist_ch1>  (25) 
0.0

>  <TOX21_FXR_BLA_agonist_ch2>  (25) 
0.0

>  <TOX21_FXR_BLA_agonist_ratio>  (25) 
0.0

>  <TOX21_FXR_BLA_agonist_viability>  (25) 
0.0

>  <TOX21_FXR_BLA_antagonist_ratio>  (25) 
0.0

>  <TOX21_FXR_BLA_antagonist_viability>  (25) 
0.0

>  <TOX21_GR_BLA_Agonist_ch1>  (25) 
0.0

>  <TOX21_GR_BLA_Agonist_ch2>  (25) 
0.0

>  <TOX21_GR_BLA_Agonist_ratio>  (25) 
0.0

>  <TOX21_GR_BLA_Antagonist_ch1>  (25) 
0.0

>  <TOX21_GR_BLA_Antagonist_ch2>  (25) 
0.0

>  <TOX21_GR_BLA_Antagonist_ratio>  (25) 
0.0

>  <TOX21_GR_BLA_Antagonist_viability>  (25) 
0.0

>  <TOX21_H2AX_HTRF_CHO_Agonist_ch1>  (25) 
0.0

>  <TOX21_H2AX_HTRF_CHO_Agonist_ch2>  (25) 
0.0

>  <TOX21_H2AX_HTRF_CHO_Agonist_ratio>  (25) 
0.0

>  <TOX21_H2AX_HTRF_CHO_viability>  (25) 
0.0

>  <TOX21_HDAC_Inhibition>  (25) 
1.0

>  <TOX21_HDAC_Inhibition_viability>  (25) 
0.0

>  <TOX21_HRE_BLA_Agonist_ch1>  (25) 
0.0

>  <TOX21_HRE_BLA_Agonist_ch2>  (25) 
0.0

>  <TOX21_HRE_BLA_Agonist_ratio>  (25) 
0.0

>  <TOX21_HRE_BLA_Agonist_viability>  (25) 
0.0

>  <TOX21_HSE_BLA_agonist_ch1>  (25) 
0.0

>  <TOX21_HSE_BLA_agonist_ch2>  (25) 
0.0

>  <TOX21_HSE_BLA_agonist_ratio>  (25) 
0.0

>  <TOX21_HSE_BLA_agonist_viability>  (25) 
0.0

>  <TOX21_LUC_Biochem>  (25) 
0.0

>  <TOX21_MMP_fitc>  (25) 
1.0

>  <TOX21_MMP_ratio_down>  (25) 
1.0

>  <TOX21_MMP_ratio_up>  (25) 
0.0

>  <TOX21_MMP_rhodamine>  (25) 
1.0

>  <TOX21_MMP_viability>  (25) 
1.0

>  <TOX21_NFkB_BLA_agonist_ch1>  (25) 
0.0

>  <TOX21_NFkB_BLA_agonist_ch2>  (25) 
0.0

>  <TOX21_NFkB_BLA_agonist_ratio>  (25) 
0.0

>  <TOX21_NFkB_BLA_agonist_viability>  (25) 
0.0

>  <TOX21_PGC_ERR_Agonist>  (25) 
1.0

>  <TOX21_PGC_ERR_Antagonist>  (25) 
0.0

>  <TOX21_PGC_ERR_viability>  (25) 
0.0

>  <TOX21_PPARd_BLA_Agonist_viability>  (25) 
0.0

>  <TOX21_PPARd_BLA_Antagonist_ch1>  (25) 
0.0

>  <TOX21_PPARd_BLA_Antagonist_ch2>  (25) 
0.0

>  <TOX21_PPARd_BLA_agonist_ch1>  (25) 
0.0

>  <TOX21_PPARd_BLA_agonist_ch2>  (25) 
0.0

>  <TOX21_PPARd_BLA_agonist_ratio>  (25) 
0.0

>  <TOX21_PPARd_BLA_antagonist_ratio>  (25) 
0.0

>  <TOX21_PPARd_BLA_antagonist_viability>  (25) 
0.0

>  <TOX21_PPARg_BLA_Agonist_ch1>  (25) 
0.0

>  <TOX21_PPARg_BLA_Agonist_ch2>  (25) 
0.0

>  <TOX21_PPARg_BLA_Agonist_ratio>  (25) 
0.0

>  <TOX21_PPARg_BLA_Antagonist_ch1>  (25) 
0.0

>  <TOX21_PPARg_BLA_Antagonist_ch2>  (25) 
0.0

>  <TOX21_PPARg_BLA_antagonist_ratio>  (25) 
1.0

>  <TOX21_PPARg_BLA_antagonist_viability>  (25) 
0.0

>  <TOX21_PR_BLA_Agonist_ch1>  (25) 
0.0

>  <TOX21_PR_BLA_Agonist_ch2>  (25) 
0.0

>  <TOX21_PR_BLA_Agonist_ratio>  (25) 
0.0

>  <TOX21_PR_BLA_Antagonist_ch1>  (25) 
0.0

>  <TOX21_PR_BLA_Antagonist_ch2>  (25) 
1.0

>  <TOX21_PR_BLA_Antagonist_ratio>  (25) 
1.0

>  <TOX21_PR_BLA_Antagonist_viability>  (25) 
0.0

>  <TOX21_PXR_Agonist>  (25) 
0.0

>  <TOX21_PXR_viability>  (25) 
0.0

>  <TOX21_RAR_LUC_Agonist>  (25) 
0.0

>  <TOX21_RAR_LUC_Agonist_viability>  (25) 
0.0

>  <TOX21_RAR_LUC_Antagonist_viability>  (25) 
0.0

>  <TOX21_RORg_LUC_CHO_Antagonist>  (25) 
0.0

>  <TOX21_RORg_LUC_CHO_Antagonist_viability>  (25) 
0.0

>  <TOX21_RT_HEK293_FLO_00hr_viability>  (25) 
0.0

>  <TOX21_RT_HEK293_FLO_08hr_viability>  (25) 
0.0

>  <TOX21_RT_HEK293_FLO_16hr_viability>  (25) 
0.0

>  <TOX21_RT_HEK293_FLO_24hr_viability>  (25) 
1.0

>  <TOX21_RT_HEK293_FLO_32hr_viability>  (25) 
1.0

>  <TOX21_RT_HEK293_FLO_40hr_viability>  (25) 
1.0

>  <TOX21_RT_HEK293_GLO_00hr_viability>  (25) 
0.0

>  <TOX21_RT_HEK293_GLO_08hr_viability>  (25) 
1.0

>  <TOX21_RT_HEK293_GLO_16hr_viability>  (25) 
1.0

>  <TOX21_RT_HEK293_GLO_24hr_viability>  (25) 
1.0

>  <TOX21_RT_HEK293_GLO_32hr_viability>  (25) 
1.0

>  <TOX21_RT_HEK293_GLO_40hr_viability>  (25) 
1.0

>  <TOX21_RT_HEPG2_FLO_00hr_ctrl_viability>  (25) 
0.0

>  <TOX21_RT_HEPG2_FLO_08hr_viability>  (25) 
0.0

>  <TOX21_RT_HEPG2_FLO_16hr_ctrl_viability>  (25) 
0.0

>  <TOX21_RT_HEPG2_FLO_24hr_viability>  (25) 
1.0

>  <TOX21_RT_HEPG2_FLO_32hr_ctrl_viability>  (25) 
1.0

>  <TOX21_RT_HEPG2_GLO_00hr_ctrl_viability>  (25) 
0.0

>  <TOX21_RT_HEPG2_GLO_08hr_ctrl_viability>  (25) 
0.0

>  <TOX21_RT_HEPG2_GLO_16hr_ctrl_viability>  (25) 
0.0

>  <TOX21_RT_HEPG2_GLO_24hr_ctrl_viability>  (25) 
0.0

>  <TOX21_RT_HEPG2_GLO_32hr_ctrl_viability>  (25) 
0.0

>  <TOX21_RT_HEPG2_GLO_40hr_viability>  (25) 
0.0

>  <TOX21_RXR_BLA_Agonist_ch1>  (25) 
0.0

>  <TOX21_RXR_BLA_Agonist_ch2>  (25) 
0.0

>  <TOX21_RXR_BLA_Agonist_ratio>  (25) 
0.0

>  <TOX21_RXR_BLA_Agonist_viability>  (25) 
0.0

>  <TOX21_SBE_BLA_Agonist_ch1>  (25) 
0.0

>  <TOX21_SBE_BLA_Agonist_ch2>  (25) 
0.0

>  <TOX21_SBE_BLA_Agonist_ratio>  (25) 
0.0

>  <TOX21_SBE_BLA_Agonist_viability>  (25) 
0.0

>  <TOX21_SBE_BLA_Antagonist_ch1>  (25) 
0.0

>  <TOX21_SBE_BLA_Antagonist_ch2>  (25) 
0.0

>  <TOX21_SBE_BLA_Antagonist_ratio>  (25) 
0.0

>  <TOX21_SBE_BLA_Antagonist_viability>  (25) 
0.0

>  <TOX21_SSH_3T3_GLI3_Agonist>  (25) 
0.0

>  <TOX21_SSH_3T3_GLI3_Agonist_viability>  (25) 
0.0

>  <TOX21_SSH_3T3_GLI3_Antagonist>  (25) 
0.0

>  <TOX21_SSH_3T3_GLI3_Antagonist_viability>  (25) 
0.0

>  <TOX21_TRHR_HEK293_Agonist>  (25) 
0.0

>  <TOX21_TRHR_HEK293_Antagonist>  (25) 
0.0

>  <TOX21_TR_LUC_GH3_Agonist>  (25) 
0.0

>  <TOX21_TR_LUC_GH3_Antagonist>  (25) 
0.0

>  <TOX21_TR_LUC_GH3_Antagonist_viability>  (25) 
0.0

>  <TOX21_TSHR_Agonist_ch2>  (25) 
0.0

>  <TOX21_TSHR_Antagonist_ch2>  (25) 
0.0

>  <TOX21_TSHR_Antagonist_ratio>  (25) 
0.0

>  <TOX21_TSHR_HTRF_Agonist_ch1>  (25) 
0.0

>  <TOX21_TSHR_HTRF_Antagonist_ch1>  (25) 
0.0

>  <TOX21_TSHR_wt_HTRF_ch1>  (25) 
0.0

>  <TOX21_TSHR_wt_ch2>  (25) 
0.0

>  <TOX21_TSHR_wt_ratio>  (25) 
0.0

>  <TOX21_VDR_BLA_Agonist_viability>  (25) 
0.0

>  <TOX21_VDR_BLA_Antagonist_ch1>  (25) 
0.0

>  <TOX21_VDR_BLA_Antagonist_ch2>  (25) 
0.0

>  <TOX21_VDR_BLA_agonist_ch1>  (25) 
0.0

>  <TOX21_VDR_BLA_agonist_ch2>  (25) 
0.0

>  <TOX21_VDR_BLA_agonist_ratio>  (25) 
0.0

>  <TOX21_VDR_BLA_antagonist_ratio>  (25) 
0.0

>  <TOX21_VDR_BLA_antagonist_viability>  (25) 
0.0

>  <TOX21_p53_BLA_p1_ch1>  (25) 
0.0

>  <TOX21_p53_BLA_p1_ch2>  (25) 
0.0

>  <TOX21_p53_BLA_p1_ratio>  (25) 
0.0

>  <TOX21_p53_BLA_p1_viability>  (25) 
0.0

>  <TOX21_p53_BLA_p2_ch1>  (25) 
0.0

>  <TOX21_p53_BLA_p2_ch2>  (25) 
0.0

>  <TOX21_p53_BLA_p2_ratio>  (25) 
0.0

>  <TOX21_p53_BLA_p2_viability>  (25) 
0.0

>  <TOX21_p53_BLA_p3_ch1>  (25) 
0.0

>  <TOX21_p53_BLA_p3_ch2>  (25) 
0.0

>  <TOX21_p53_BLA_p3_ratio>  (25) 
0.0

>  <TOX21_p53_BLA_p4_ch1>  (25) 
0.0

>  <TOX21_p53_BLA_p4_ch2>  (25) 
0.0

>  <TOX21_p53_BLA_p4_ratio>  (25) 
0.0

>  <TOX21_p53_BLA_p4_viability>  (25) 
0.0

>  <TOX21_p53_BLA_p5_ch1>  (25) 
0.0

>  <TOX21_p53_BLA_p5_ch2>  (25) 
0.0

>  <TOX21_p53_BLA_p5_ratio>  (25) 
0.0

>  <TOX21_p53_BLA_p5_viability>  (25) 
0.0

>  <Tanguay_ZF_120hpf_AXIS_up>  (25) 
1.0

>  <Tanguay_ZF_120hpf_ActivityScore>  (25) 
1.0

>  <Tanguay_ZF_120hpf_BRAI_up>  (25) 
1.0

>  <Tanguay_ZF_120hpf_CFIN_up>  (25) 
1.0

>  <Tanguay_ZF_120hpf_CIRC_up>  (25) 
1.0

>  <Tanguay_ZF_120hpf_EYE_up>  (25) 
1.0

>  <Tanguay_ZF_120hpf_JAW_up>  (25) 
1.0

>  <Tanguay_ZF_120hpf_MORT_up>  (25) 
1.0

>  <Tanguay_ZF_120hpf_NC_up>  (25) 
0.0

>  <Tanguay_ZF_120hpf_OTIC_up>  (25) 
1.0

>  <Tanguay_ZF_120hpf_PE_up>  (25) 
1.0

>  <Tanguay_ZF_120hpf_PFIN_up>  (25) 
1.0

>  <Tanguay_ZF_120hpf_PIG_up>  (25) 
1.0

>  <Tanguay_ZF_120hpf_SNOU_up>  (25) 
1.0

>  <Tanguay_ZF_120hpf_SOMI_up>  (25) 
1.0

>  <Tanguay_ZF_120hpf_SWIM_up>  (25) 
1.0

>  <Tanguay_ZF_120hpf_TRUN_up>  (25) 
1.0

>  <Tanguay_ZF_120hpf_TR_up>  (25) 
1.0

>  <Tanguay_ZF_120hpf_YSE_up>  (25) 
1.0

>  <UPITT_HCI_U2OS_AR_TIF2_Nucleoli_Agonist>  (25) 
1.0

>  <UPITT_HCI_U2OS_AR_TIF2_Nucleoli_Antagonist>  (25) 
1.0

>  <UPITT_HCI_U2OS_AR_TIF2_Nucleoli_Cytoplasm_Ratio_Agonist>  (25) 
0.0

>  <UPITT_HCI_U2OS_AR_TIF2_Nucleoli_Cytoplasm_Ratio_Antagonist>  (25) 
0.0

>  <NVS_NR_mERa>  (25) 
1

$$$$

     RDKit          3D

 11 11  0  0  0  0  0  0  0  0999 V2000
    0.0000    0.0000    0.0000 C   0  0  0  0  0  0  0  0  0  0  0  0
    0.0000    0.0000    0.0000 C   0  0  0  0  0  0  0  0  0  0  0  0
    0.0000    0.0000    0.0000 C   0  0  0  0  0  0  0  0  0  0  0  0
    0.0000    0.0000    0.0000 C   0  0  0  0  0  0  0  0  0  0  0  0
    0.0000    0.0000    0.0000 C   0  0  0  0  0  0  0  0  0  0  0  0
    0.0000    0.0000    0.0000 C   0  0  0  0  0  0  0  0  0  0  0  0
    0.0000    0.0000    0.0000 C   0  0  0  0  0  0  0  0  0  0  0  0
    0.0000    0.0000    0.0000 C   0  0  0  0  0  0  0  0  0  0  0  0
    0.0000    0.0000    0.0000 C   0  0  0  0  0  0  0  0  0  0  0  0
    0.0000    0.0000    0.0000 C   0  0  0  0  0  0  0  0  0  0  0  0
    0.0000    0.0000    0.0000 O   0  0  0  0  0  0  0  0  0  0  0  0
  1  2  1  0
  2  3  1  0
  2  4  1  0
  2  5  1  0
  5  6  2  0
  6  7  1  0
  7  8  2  0
  8  9  1  0
  9 10  2  0
  8 11  1  0
 10  5  1  0
M  END
>  <CASRN>  (26) 
98-54-4

>  <Name>  (26) 
p-tert-Butylphenol

>  <Active>  (26) 
2

>  <Inactive>  (26) 
0

>  <Bioactivity>  (26) 
Active

>  <Min LEL>  (26) 
100.0

>  <Max HDT>  (26) 
nan

>  <Class>  (26) 
1

>  <Code>  (26) 
C98544

>  <NVS_NR_hER>  (26) 
0.0

>  <OT_ER_ERaERb_1440>  (26) 
1.0

>  <OT_FXR_FXRSRC1_0480>  (26) 
0.0

>  <OT_PPARg_PPARgSRC1_1440>  (26) 
0.0

>  <OT_FXR_FXRSRC1_1440>  (26) 
0.0

>  <OT_NURR1_NURR1RXRa_0480>  (26) 
0.0

>  <OT_NURR1_NURR1RXRa_1440>  (26) 
0.0

>  <OT_PPARg_PPARgSRC1_0480>  (26) 
0.0

>  <OT_AR_ARELUC_AG_1440>  (26) 
0.0

>  <OT_ERa_EREGFP_0120>  (26) 
1.0

>  <BSK_3C_HLADR_down>  (26) 
0.0

>  <BSK_3C_Vis_down>  (26) 
0.0

>  <BSK_3C_uPAR_down>  (26) 
0.0

>  <ATG_CAR_TRANS_up>  (26) 
0.0

>  <ATG_E2F_CIS_dn>  (26) 
0.0

>  <ATG_EGR_CIS_up>  (26) 
0.0

>  <ATG_ERa_TRANS_dn>  (26) 
0.0

>  <ATG_ERa_TRANS_up>  (26) 
1.0

>  <ATG_FXR_TRANS_dn>  (26) 
0.0

>  <ATG_GLI_CIS_dn>  (26) 
0.0

>  <ATG_GRE_CIS_up>  (26) 
0.0

>  <ATG_LXRa_TRANS_dn>  (26) 
0.0

>  <ATG_LXRa_TRANS_up>  (26) 
0.0

>  <ATG_NRF1_CIS_up>  (26) 
0.0

>  <ATG_NURR1_TRANS_up>  (26) 
0.0

>  <ATG_Sox_CIS_dn>  (26) 
0.0

>  <ATG_Sox_CIS_up>  (26) 
1.0

>  <ATG_Sp1_CIS_up>  (26) 
1.0

>  <ATG_TGFb_CIS_up>  (26) 
0.0

>  <TOX21_ARE_BLA_agonist_ratio>  (26) 
0.0

>  <TOX21_RAR_LUC_Antagonist>  (26) 
0.0

>  <ATG_LXRb_TRANS_dn>  (26) 
0.0

>  <ATG_CAR_TRANS_dn>  (26) 
0.0

>  <ATG_BRE_CIS_dn>  (26) 
0.0

>  <ATG_E2F_CIS_up>  (26) 
0.0

>  <TOX21_TSHR_Agonist_ratio>  (26) 
0.0

>  <ACEA_ER_80hr>  (26) 
1.0

>  <TOX21_CAR_Agonist_viabillity>  (26) 
0.0

>  <TOX21_PR_BLA_Agonist_viability>  (26) 
0.0

>  <TOX21_RT_HEPG2_FLO_40hr_ctrl_viability>  (26) 
1.0

>  <TOX21_AhR_LUC_Agonist_viability>  (26) 
0.0

>  <TOX21_ERR_viability>  (26) 
0.0

>  <TOX21_p53_BLA_p3_viability>  (26) 
0.0

>  <NVS_NR_cAR>  (26) 
1.0

>  <NVS_NR_hPR>  (26) 
1.0

>  <NVS_NR_rAR>  (26) 
1.0

>  <NVS_NR_hGR>  (26) 
0.0

>  <NVS_NR_hAR>  (26) 
1.0

>  <NVS_NR_bER>  (26) 
0.0

>  <ACEA_AR_agonist_80hr>  (26) 
0.0

>  <ACEA_AR_agonist_AUC_viability>  (26) 
1.0

>  <ACEA_AR_antagonist_80hr>  (26) 
1.0

>  <ACEA_AR_antagonist_AUC_viability>  (26) 
1.0

>  <ACEA_ER_AUC_viability>  (26) 
1.0

>  <APR_HepG2_CellCycleArrest_24h_dn>  (26) 
0.0

>  <APR_HepG2_CellCycleArrest_24h_up>  (26) 
0.0

>  <APR_HepG2_CellCycleArrest_72h_dn>  (26) 
0.0

>  <APR_HepG2_CellCycleArrest_72h_up>  (26) 
0.0

>  <APR_HepG2_CellLoss_24h_dn>  (26) 
0.0

>  <APR_HepG2_CellLoss_24h_up>  (26) 
0.0

>  <APR_HepG2_CellLoss_72h_dn>  (26) 
0.0

>  <APR_HepG2_CellLoss_72h_up>  (26) 
0.0

>  <APR_HepG2_MicrotubuleCSK_24h_dn>  (26) 
0.0

>  <APR_HepG2_MicrotubuleCSK_24h_up>  (26) 
0.0

>  <APR_HepG2_MicrotubuleCSK_72h_dn>  (26) 
0.0

>  <APR_HepG2_MicrotubuleCSK_72h_up>  (26) 
0.0

>  <APR_HepG2_MitoMass_24h_dn>  (26) 
0.0

>  <APR_HepG2_MitoMass_24h_up>  (26) 
0.0

>  <APR_HepG2_MitoMass_72h_dn>  (26) 
0.0

>  <APR_HepG2_MitoMass_72h_up>  (26) 
1.0

>  <APR_HepG2_MitoMembPot_24h_dn>  (26) 
0.0

>  <APR_HepG2_MitoMembPot_24h_up>  (26) 
0.0

>  <APR_HepG2_MitoMembPot_72h_dn>  (26) 
1.0

>  <APR_HepG2_MitoMembPot_72h_up>  (26) 
0.0

>  <APR_HepG2_MitoticArrest_24h_dn>  (26) 
0.0

>  <APR_HepG2_MitoticArrest_24h_up>  (26) 
0.0

>  <APR_HepG2_MitoticArrest_72h_dn>  (26) 
0.0

>  <APR_HepG2_MitoticArrest_72h_up>  (26) 
0.0

>  <APR_HepG2_NuclearSize_24h_dn>  (26) 
0.0

>  <APR_HepG2_NuclearSize_24h_up>  (26) 
0.0

>  <APR_HepG2_NuclearSize_72h_dn>  (26) 
0.0

>  <APR_HepG2_NuclearSize_72h_up>  (26) 
0.0

>  <APR_HepG2_OxidativeStress_24h_dn>  (26) 
0.0

>  <APR_HepG2_OxidativeStress_24h_up>  (26) 
0.0

>  <APR_HepG2_OxidativeStress_72h_dn>  (26) 
0.0

>  <APR_HepG2_OxidativeStress_72h_up>  (26) 
0.0

>  <APR_HepG2_StressKinase_24h_dn>  (26) 
0.0

>  <APR_HepG2_StressKinase_24h_up>  (26) 
0.0

>  <APR_HepG2_StressKinase_72h_dn>  (26) 
0.0

>  <APR_HepG2_StressKinase_72h_up>  (26) 
0.0

>  <APR_HepG2_p53Act_24h_dn>  (26) 
0.0

>  <APR_HepG2_p53Act_24h_up>  (26) 
0.0

>  <APR_HepG2_p53Act_72h_dn>  (26) 
0.0

>  <APR_HepG2_p53Act_72h_up>  (26) 
0.0

>  <ATG_AP_1_CIS_dn>  (26) 
0.0

>  <ATG_AP_1_CIS_up>  (26) 
1.0

>  <ATG_AP_2_CIS_dn>  (26) 
0.0

>  <ATG_AP_2_CIS_up>  (26) 
0.0

>  <ATG_AR_TRANS_dn>  (26) 
0.0

>  <ATG_AR_TRANS_up>  (26) 
0.0

>  <ATG_Ahr_CIS_dn>  (26) 
0.0

>  <ATG_Ahr_CIS_up>  (26) 
0.0

>  <ATG_BRE_CIS_up>  (26) 
1.0

>  <ATG_CMV_CIS_dn>  (26) 
0.0

>  <ATG_CMV_CIS_up>  (26) 
1.0

>  <ATG_CRE_CIS_dn>  (26) 
0.0

>  <ATG_CRE_CIS_up>  (26) 
1.0

>  <ATG_C_EBP_CIS_dn>  (26) 
0.0

>  <ATG_C_EBP_CIS_up>  (26) 
0.0

>  <ATG_DR4_LXR_CIS_dn>  (26) 
1.0

>  <ATG_DR4_LXR_CIS_up>  (26) 
0.0

>  <ATG_DR5_CIS_dn>  (26) 
0.0

>  <ATG_DR5_CIS_up>  (26) 
0.0

>  <ATG_EGR_CIS_dn>  (26) 
0.0

>  <ATG_ERE_CIS_dn>  (26) 
0.0

>  <ATG_ERE_CIS_up>  (26) 
1.0

>  <ATG_ERRa_TRANS_dn>  (26) 
0.0

>  <ATG_ERRa_TRANS_up>  (26) 
0.0

>  <ATG_ERRg_TRANS_dn>  (26) 
0.0

>  <ATG_ERRg_TRANS_up>  (26) 
0.0

>  <ATG_E_Box_CIS_dn>  (26) 
0.0

>  <ATG_E_Box_CIS_up>  (26) 
0.0

>  <ATG_Ets_CIS_dn>  (26) 
0.0

>  <ATG_Ets_CIS_up>  (26) 
0.0

>  <ATG_FXR_TRANS_up>  (26) 
0.0

>  <ATG_FoxA2_CIS_dn>  (26) 
0.0

>  <ATG_FoxA2_CIS_up>  (26) 
0.0

>  <ATG_FoxO_CIS_dn>  (26) 
0.0

>  <ATG_FoxO_CIS_up>  (26) 
0.0

>  <ATG_GAL4_TRANS_dn>  (26) 
0.0

>  <ATG_GAL4_TRANS_up>  (26) 
0.0

>  <ATG_GATA_CIS_dn>  (26) 
0.0

>  <ATG_GATA_CIS_up>  (26) 
0.0

>  <ATG_GLI_CIS_up>  (26) 
0.0

>  <ATG_GRE_CIS_dn>  (26) 
0.0

>  <ATG_GR_TRANS_dn>  (26) 
0.0

>  <ATG_GR_TRANS_up>  (26) 
0.0

>  <ATG_HIF1a_CIS_dn>  (26) 
1.0

>  <ATG_HIF1a_CIS_up>  (26) 
0.0

>  <ATG_HNF4a_TRANS_dn>  (26) 
0.0

>  <ATG_HNF4a_TRANS_up>  (26) 
0.0

>  <ATG_HNF6_CIS_dn>  (26) 
0.0

>  <ATG_HNF6_CIS_up>  (26) 
0.0

>  <ATG_HSE_CIS_dn>  (26) 
0.0

>  <ATG_HSE_CIS_up>  (26) 
0.0

>  <ATG_IR1_CIS_dn>  (26) 
0.0

>  <ATG_IR1_CIS_up>  (26) 
0.0

>  <ATG_ISRE_CIS_dn>  (26) 
0.0

>  <ATG_ISRE_CIS_up>  (26) 
0.0

>  <ATG_LXRb_TRANS_up>  (26) 
0.0

>  <ATG_MRE_CIS_dn>  (26) 
0.0

>  <ATG_MRE_CIS_up>  (26) 
1.0

>  <ATG_M_06_CIS_dn>  (26) 
0.0

>  <ATG_M_06_CIS_up>  (26) 
0.0

>  <ATG_M_06_TRANS_dn>  (26) 
0.0

>  <ATG_M_06_TRANS_up>  (26) 
0.0

>  <ATG_M_19_CIS_dn>  (26) 
0.0

>  <ATG_M_19_CIS_up>  (26) 
0.0

>  <ATG_M_19_TRANS_dn>  (26) 
0.0

>  <ATG_M_19_TRANS_up>  (26) 
0.0

>  <ATG_M_32_CIS_dn>  (26) 
0.0

>  <ATG_M_32_CIS_up>  (26) 
0.0

>  <ATG_M_32_TRANS_dn>  (26) 
0.0

>  <ATG_M_32_TRANS_up>  (26) 
0.0

>  <ATG_M_61_CIS_dn>  (26) 
0.0

>  <ATG_M_61_CIS_up>  (26) 
0.0

>  <ATG_M_61_TRANS_dn>  (26) 
0.0

>  <ATG_M_61_TRANS_up>  (26) 
0.0

>  <ATG_Myb_CIS_dn>  (26) 
0.0

>  <ATG_Myb_CIS_up>  (26) 
0.0

>  <ATG_Myc_CIS_dn>  (26) 
0.0

>  <ATG_Myc_CIS_up>  (26) 
0.0

>  <ATG_NFI_CIS_dn>  (26) 
0.0

>  <ATG_NFI_CIS_up>  (26) 
1.0

>  <ATG_NF_kB_CIS_dn>  (26) 
0.0

>  <ATG_NF_kB_CIS_up>  (26) 
0.0

>  <ATG_NRF1_CIS_dn>  (26) 
0.0

>  <ATG_NRF2_ARE_CIS_dn>  (26) 
0.0

>  <ATG_NRF2_ARE_CIS_up>  (26) 
1.0

>  <ATG_NURR1_TRANS_dn>  (26) 
0.0

>  <ATG_Oct_MLP_CIS_dn>  (26) 
0.0

>  <ATG_Oct_MLP_CIS_up>  (26) 
1.0

>  <ATG_PBREM_CIS_dn>  (26) 
0.0

>  <ATG_PBREM_CIS_up>  (26) 
1.0

>  <ATG_PPARa_TRANS_dn>  (26) 
0.0

>  <ATG_PPARa_TRANS_up>  (26) 
1.0

>  <ATG_PPARd_TRANS_dn>  (26) 
0.0

>  <ATG_PPARd_TRANS_up>  (26) 
0.0

>  <ATG_PPARg_TRANS_dn>  (26) 
0.0

>  <ATG_PPARg_TRANS_up>  (26) 
0.0

>  <ATG_PPRE_CIS_dn>  (26) 
0.0

>  <ATG_PPRE_CIS_up>  (26) 
0.0

>  <ATG_PXRE_CIS_dn>  (26) 
0.0

>  <ATG_PXRE_CIS_up>  (26) 
1.0

>  <ATG_PXR_TRANS_dn>  (26) 
0.0

>  <ATG_PXR_TRANS_up>  (26) 
1.0

>  <ATG_Pax6_CIS_dn>  (26) 
0.0

>  <ATG_Pax6_CIS_up>  (26) 
1.0

>  <ATG_RARa_TRANS_dn>  (26) 
0.0

>  <ATG_RARa_TRANS_up>  (26) 
0.0

>  <ATG_RARb_TRANS_dn>  (26) 
0.0

>  <ATG_RARb_TRANS_up>  (26) 
0.0

>  <ATG_RARg_TRANS_dn>  (26) 
0.0

>  <ATG_RARg_TRANS_up>  (26) 
0.0

>  <ATG_RORE_CIS_dn>  (26) 
0.0

>  <ATG_RORE_CIS_up>  (26) 
0.0

>  <ATG_RORb_TRANS_dn>  (26) 
0.0

>  <ATG_RORb_TRANS_up>  (26) 
0.0

>  <ATG_RORg_TRANS_dn>  (26) 
0.0

>  <ATG_RORg_TRANS_up>  (26) 
0.0

>  <ATG_RXRa_TRANS_dn>  (26) 
0.0

>  <ATG_RXRa_TRANS_up>  (26) 
0.0

>  <ATG_RXRb_TRANS_dn>  (26) 
0.0

>  <ATG_RXRb_TRANS_up>  (26) 
1.0

>  <ATG_SREBP_CIS_dn>  (26) 
1.0

>  <ATG_SREBP_CIS_up>  (26) 
0.0

>  <ATG_STAT3_CIS_dn>  (26) 
0.0

>  <ATG_STAT3_CIS_up>  (26) 
0.0

>  <ATG_Sp1_CIS_dn>  (26) 
0.0

>  <ATG_TAL_CIS_dn>  (26) 
0.0

>  <ATG_TAL_CIS_up>  (26) 
0.0

>  <ATG_TA_CIS_dn>  (26) 
0.0

>  <ATG_TA_CIS_up>  (26) 
0.0

>  <ATG_TCF_b_cat_CIS_dn>  (26) 
1.0

>  <ATG_TCF_b_cat_CIS_up>  (26) 
0.0

>  <ATG_TGFb_CIS_dn>  (26) 
0.0

>  <ATG_THRa1_TRANS_dn>  (26) 
0.0

>  <ATG_THRa1_TRANS_up>  (26) 
0.0

>  <ATG_VDRE_CIS_dn>  (26) 
0.0

>  <ATG_VDRE_CIS_up>  (26) 
1.0

>  <ATG_VDR_TRANS_dn>  (26) 
0.0

>  <ATG_VDR_TRANS_up>  (26) 
0.0

>  <ATG_XTT_Cytotoxicity_up>  (26) 
0.0

>  <ATG_Xbp1_CIS_dn>  (26) 
0.0

>  <ATG_Xbp1_CIS_up>  (26) 
1.0

>  <ATG_p53_CIS_dn>  (26) 
1.0

>  <ATG_p53_CIS_up>  (26) 
0.0

>  <BSK_3C_Eselectin_down>  (26) 
0.0

>  <BSK_3C_Eselectin_up>  (26) 
0.0

>  <BSK_3C_HLADR_up>  (26) 
0.0

>  <BSK_3C_ICAM1_down>  (26) 
0.0

>  <BSK_3C_ICAM1_up>  (26) 
0.0

>  <BSK_3C_IL8_down>  (26) 
0.0

>  <BSK_3C_IL8_up>  (26) 
0.0

>  <BSK_3C_MCP1_down>  (26) 
0.0

>  <BSK_3C_MCP1_up>  (26) 
0.0

>  <BSK_3C_MIG_down>  (26) 
0.0

>  <BSK_3C_MIG_up>  (26) 
0.0

>  <BSK_3C_Proliferation_down>  (26) 
0.0

>  <BSK_3C_Proliferation_up>  (26) 
0.0

>  <BSK_3C_SRB_down>  (26) 
0.0

>  <BSK_3C_SRB_up>  (26) 
0.0

>  <BSK_3C_Thrombomodulin_down>  (26) 
0.0

>  <BSK_3C_Thrombomodulin_up>  (26) 
0.0

>  <BSK_3C_TissueFactor_down>  (26) 
0.0

>  <BSK_3C_TissueFactor_up>  (26) 
0.0

>  <BSK_3C_VCAM1_down>  (26) 
0.0

>  <BSK_3C_VCAM1_up>  (26) 
0.0

>  <BSK_3C_Vis_up>  (26) 
0.0

>  <BSK_3C_uPAR_up>  (26) 
0.0

>  <BSK_4H_Eotaxin3_down>  (26) 
0.0

>  <BSK_4H_Eotaxin3_up>  (26) 
0.0

>  <BSK_4H_MCP1_down>  (26) 
0.0

>  <BSK_4H_MCP1_up>  (26) 
0.0

>  <BSK_4H_Pselectin_down>  (26) 
0.0

>  <BSK_4H_Pselectin_up>  (26) 
0.0

>  <BSK_4H_SRB_down>  (26) 
0.0

>  <BSK_4H_SRB_up>  (26) 
0.0

>  <BSK_4H_VCAM1_down>  (26) 
0.0

>  <BSK_4H_VCAM1_up>  (26) 
0.0

>  <BSK_4H_VEGFRII_down>  (26) 
0.0

>  <BSK_4H_VEGFRII_up>  (26) 
0.0

>  <BSK_4H_uPAR_down>  (26) 
0.0

>  <BSK_4H_uPAR_up>  (26) 
0.0

>  <BSK_BE3C_HLADR_down>  (26) 
0.0

>  <BSK_BE3C_HLADR_up>  (26) 
0.0

>  <BSK_BE3C_IL1a_down>  (26) 
0.0

>  <BSK_BE3C_IL1a_up>  (26) 
0.0

>  <BSK_BE3C_IP10_down>  (26) 
0.0

>  <BSK_BE3C_IP10_up>  (26) 
0.0

>  <BSK_BE3C_MIG_down>  (26) 
0.0

>  <BSK_BE3C_MIG_up>  (26) 
0.0

>  <BSK_BE3C_MMP1_down>  (26) 
0.0

>  <BSK_BE3C_MMP1_up>  (26) 
0.0

>  <BSK_BE3C_PAI1_down>  (26) 
0.0

>  <BSK_BE3C_PAI1_up>  (26) 
0.0

>  <BSK_BE3C_SRB_down>  (26) 
0.0

>  <BSK_BE3C_SRB_up>  (26) 
0.0

>  <BSK_BE3C_TGFb1_down>  (26) 
0.0

>  <BSK_BE3C_TGFb1_up>  (26) 
0.0

>  <BSK_BE3C_tPA_down>  (26) 
0.0

>  <BSK_BE3C_tPA_up>  (26) 
0.0

>  <BSK_BE3C_uPAR_down>  (26) 
0.0

>  <BSK_BE3C_uPAR_up>  (26) 
0.0

>  <BSK_BE3C_uPA_down>  (26) 
0.0

>  <BSK_BE3C_uPA_up>  (26) 
0.0

>  <BSK_CASM3C_HLADR_down>  (26) 
1.0

>  <BSK_CASM3C_HLADR_up>  (26) 
0.0

>  <BSK_CASM3C_IL6_down>  (26) 
0.0

>  <BSK_CASM3C_IL6_up>  (26) 
0.0

>  <BSK_CASM3C_IL8_down>  (26) 
0.0

>  <BSK_CASM3C_IL8_up>  (26) 
0.0

>  <BSK_CASM3C_LDLR_down>  (26) 
0.0

>  <BSK_CASM3C_LDLR_up>  (26) 
0.0

>  <BSK_CASM3C_MCP1_down>  (26) 
0.0

>  <BSK_CASM3C_MCP1_up>  (26) 
0.0

>  <BSK_CASM3C_MCSF_down>  (26) 
0.0

>  <BSK_CASM3C_MCSF_up>  (26) 
0.0

>  <BSK_CASM3C_MIG_down>  (26) 
0.0

>  <BSK_CASM3C_MIG_up>  (26) 
0.0

>  <BSK_CASM3C_Proliferation_down>  (26) 
0.0

>  <BSK_CASM3C_Proliferation_up>  (26) 
0.0

>  <BSK_CASM3C_SAA_down>  (26) 
0.0

>  <BSK_CASM3C_SAA_up>  (26) 
0.0

>  <BSK_CASM3C_SRB_down>  (26) 
0.0

>  <BSK_CASM3C_SRB_up>  (26) 
0.0

>  <BSK_CASM3C_Thrombomodulin_down>  (26) 
0.0

>  <BSK_CASM3C_Thrombomodulin_up>  (26) 
0.0

>  <BSK_CASM3C_TissueFactor_down>  (26) 
0.0

>  <BSK_CASM3C_TissueFactor_up>  (26) 
0.0

>  <BSK_CASM3C_VCAM1_down>  (26) 
0.0

>  <BSK_CASM3C_VCAM1_up>  (26) 
0.0

>  <BSK_CASM3C_uPAR_down>  (26) 
0.0

>  <BSK_CASM3C_uPAR_up>  (26) 
0.0

>  <BSK_KF3CT_ICAM1_down>  (26) 
0.0

>  <BSK_KF3CT_ICAM1_up>  (26) 
0.0

>  <BSK_KF3CT_IL1a_down>  (26) 
0.0

>  <BSK_KF3CT_IL1a_up>  (26) 
0.0

>  <BSK_KF3CT_IP10_down>  (26) 
0.0

>  <BSK_KF3CT_IP10_up>  (26) 
0.0

>  <BSK_KF3CT_MCP1_down>  (26) 
0.0

>  <BSK_KF3CT_MCP1_up>  (26) 
0.0

>  <BSK_KF3CT_MMP9_down>  (26) 
0.0

>  <BSK_KF3CT_MMP9_up>  (26) 
0.0

>  <BSK_KF3CT_SRB_down>  (26) 
0.0

>  <BSK_KF3CT_SRB_up>  (26) 
0.0

>  <BSK_KF3CT_TGFb1_down>  (26) 
0.0

>  <BSK_KF3CT_TGFb1_up>  (26) 
0.0

>  <BSK_KF3CT_TIMP2_down>  (26) 
0.0

>  <BSK_KF3CT_TIMP2_up>  (26) 
0.0

>  <BSK_KF3CT_uPA_down>  (26) 
0.0

>  <BSK_KF3CT_uPA_up>  (26) 
0.0

>  <BSK_LPS_CD40_down>  (26) 
0.0

>  <BSK_LPS_CD40_up>  (26) 
0.0

>  <BSK_LPS_Eselectin_down>  (26) 
0.0

>  <BSK_LPS_Eselectin_up>  (26) 
0.0

>  <BSK_LPS_IL1a_down>  (26) 
0.0

>  <BSK_LPS_IL1a_up>  (26) 
0.0

>  <BSK_LPS_IL8_down>  (26) 
0.0

>  <BSK_LPS_IL8_up>  (26) 
0.0

>  <BSK_LPS_MCP1_down>  (26) 
0.0

>  <BSK_LPS_MCP1_up>  (26) 
0.0

>  <BSK_LPS_MCSF_down>  (26) 
0.0

>  <BSK_LPS_MCSF_up>  (26) 
0.0

>  <BSK_LPS_PGE2_down>  (26) 
1.0

>  <BSK_LPS_PGE2_up>  (26) 
0.0

>  <BSK_LPS_SRB_down>  (26) 
0.0

>  <BSK_LPS_SRB_up>  (26) 
0.0

>  <BSK_LPS_TNFa_down>  (26) 
0.0

>  <BSK_LPS_TNFa_up>  (26) 
0.0

>  <BSK_LPS_TissueFactor_down>  (26) 
0.0

>  <BSK_LPS_TissueFactor_up>  (26) 
0.0

>  <BSK_LPS_VCAM1_down>  (26) 
0.0

>  <BSK_LPS_VCAM1_up>  (26) 
0.0

>  <BSK_SAg_CD38_down>  (26) 
0.0

>  <BSK_SAg_CD38_up>  (26) 
0.0

>  <BSK_SAg_CD40_down>  (26) 
0.0

>  <BSK_SAg_CD40_up>  (26) 
0.0

>  <BSK_SAg_CD69_down>  (26) 
0.0

>  <BSK_SAg_CD69_up>  (26) 
0.0

>  <BSK_SAg_Eselectin_down>  (26) 
0.0

>  <BSK_SAg_Eselectin_up>  (26) 
1.0

>  <BSK_SAg_IL8_down>  (26) 
0.0

>  <BSK_SAg_IL8_up>  (26) 
0.0

>  <BSK_SAg_MCP1_down>  (26) 
0.0

>  <BSK_SAg_MCP1_up>  (26) 
0.0

>  <BSK_SAg_MIG_down>  (26) 
0.0

>  <BSK_SAg_MIG_up>  (26) 
0.0

>  <BSK_SAg_PBMCCytotoxicity_down>  (26) 
0.0

>  <BSK_SAg_PBMCCytotoxicity_up>  (26) 
0.0

>  <BSK_SAg_Proliferation_down>  (26) 
0.0

>  <BSK_SAg_Proliferation_up>  (26) 
0.0

>  <BSK_SAg_SRB_down>  (26) 
0.0

>  <BSK_SAg_SRB_up>  (26) 
0.0

>  <BSK_hDFCGF_CollagenIII_down>  (26) 
0.0

>  <BSK_hDFCGF_CollagenIII_up>  (26) 
0.0

>  <BSK_hDFCGF_EGFR_down>  (26) 
0.0

>  <BSK_hDFCGF_EGFR_up>  (26) 
0.0

>  <BSK_hDFCGF_IL8_down>  (26) 
0.0

>  <BSK_hDFCGF_IL8_up>  (26) 
0.0

>  <BSK_hDFCGF_IP10_down>  (26) 
0.0

>  <BSK_hDFCGF_IP10_up>  (26) 
0.0

>  <BSK_hDFCGF_MCSF_down>  (26) 
0.0

>  <BSK_hDFCGF_MCSF_up>  (26) 
0.0

>  <BSK_hDFCGF_MIG_down>  (26) 
0.0

>  <BSK_hDFCGF_MIG_up>  (26) 
0.0

>  <BSK_hDFCGF_MMP1_down>  (26) 
0.0

>  <BSK_hDFCGF_MMP1_up>  (26) 
0.0

>  <BSK_hDFCGF_PAI1_down>  (26) 
0.0

>  <BSK_hDFCGF_PAI1_up>  (26) 
0.0

>  <BSK_hDFCGF_Proliferation_down>  (26) 
0.0

>  <BSK_hDFCGF_Proliferation_up>  (26) 
0.0

>  <BSK_hDFCGF_SRB_down>  (26) 
0.0

>  <BSK_hDFCGF_SRB_up>  (26) 
0.0

>  <BSK_hDFCGF_TIMP1_down>  (26) 
0.0

>  <BSK_hDFCGF_TIMP1_up>  (26) 
0.0

>  <BSK_hDFCGF_VCAM1_down>  (26) 
0.0

>  <BSK_hDFCGF_VCAM1_up>  (26) 
0.0

>  <CEETOX_H295R_11DCORT_dn>  (26) 
0.0

>  <CEETOX_H295R_11DCORT_up>  (26) 
0.0

>  <CEETOX_H295R_ANDR_dn>  (26) 
0.0

>  <CEETOX_H295R_ANDR_up>  (26) 
0.0

>  <CEETOX_H295R_CORTIC_dn>  (26) 
0.0

>  <CEETOX_H295R_CORTIC_up>  (26) 
1.0

>  <CEETOX_H295R_CORTISOL_dn>  (26) 
0.0

>  <CEETOX_H295R_CORTISOL_up>  (26) 
0.0

>  <CEETOX_H295R_DOC_dn>  (26) 
0.0

>  <CEETOX_H295R_DOC_up>  (26) 
0.0

>  <CEETOX_H295R_ESTRADIOL_dn>  (26) 
0.0

>  <CEETOX_H295R_ESTRADIOL_up>  (26) 
1.0

>  <CEETOX_H295R_ESTRONE_dn>  (26) 
0.0

>  <CEETOX_H295R_ESTRONE_up>  (26) 
1.0

>  <CEETOX_H295R_MTT_cell_viability_dn>  (26) 
0.0

>  <CEETOX_H295R_MTT_cell_viability_up>  (26) 
0.0

>  <CEETOX_H295R_OHPREG_dn>  (26) 
0.0

>  <CEETOX_H295R_OHPREG_up>  (26) 
0.0

>  <CEETOX_H295R_OHPROG_dn>  (26) 
0.0

>  <CEETOX_H295R_OHPROG_up>  (26) 
1.0

>  <CEETOX_H295R_PROG_dn>  (26) 
0.0

>  <CEETOX_H295R_PROG_up>  (26) 
0.0

>  <CEETOX_H295R_TESTO_dn>  (26) 
0.0

>  <CEETOX_H295R_TESTO_up>  (26) 
0.0

>  <NCCT_HEK293T_CellTiterGLO>  (26) 
1.0

>  <NCCT_QuantiLum_inhib_2_dn>  (26) 
1.0

>  <NCCT_QuantiLum_inhib_dn>  (26) 
1.0

>  <NCCT_TPO_AUR_dn>  (26) 
1.0

>  <NHEERL_ZF_144hpf_TERATOSCORE_up>  (26) 
1.0

>  <NIS_HEK293T_CTG_Cytotoxicity>  (26) 
0.0

>  <NIS_RAIU_inhibition>  (26) 
0.0

>  <NVS_ADME_hCYP2A6>  (26) 
0.0

>  <NVS_ADME_hCYP2A6_Activator>  (26) 
0.0

>  <NVS_ENZ_hAKT2>  (26) 
0.0

>  <NVS_ENZ_hAKT2_Activator>  (26) 
0.0

>  <NVS_ENZ_hGSK3b>  (26) 
0.0

>  <NVS_ENZ_hGSK3b_Activator>  (26) 
0.0

>  <NVS_ENZ_hPPP1CA>  (26) 
0.0

>  <NVS_ENZ_hPPP1CA_Activator>  (26) 
0.0

>  <NVS_ENZ_hVEGFR1>  (26) 
0.0

>  <NVS_ENZ_hVEGFR1_Activator>  (26) 
0.0

>  <NVS_MP_hPBR>  (26) 
0.0

>  <NVS_NR_hPPARa>  (26) 
0.0

>  <NVS_TR_gDAT>  (26) 
0.0

>  <NVS_TR_rNET>  (26) 
0.0

>  <OT_AR_ARSRC1_0480>  (26) 
0.0

>  <OT_AR_ARSRC1_0960>  (26) 
0.0

>  <OT_ER_ERaERa_0480>  (26) 
1.0

>  <OT_ER_ERaERa_1440>  (26) 
1.0

>  <OT_ER_ERaERb_0480>  (26) 
1.0

>  <OT_ER_ERbERb_0480>  (26) 
1.0

>  <OT_ER_ERbERb_1440>  (26) 
1.0

>  <OT_ERa_EREGFP_0480>  (26) 
1.0

>  <TOX21_AP1_BLA_Agonist_ch1>  (26) 
0.0

>  <TOX21_AP1_BLA_Agonist_ch2>  (26) 
0.0

>  <TOX21_AP1_BLA_Agonist_ratio>  (26) 
1.0

>  <TOX21_AP1_BLA_Agonist_viability>  (26) 
0.0

>  <TOX21_ARE_BLA_Agonist_ch1>  (26) 
0.0

>  <TOX21_ARE_BLA_Agonist_ch2>  (26) 
0.0

>  <TOX21_ARE_BLA_agonist_viability>  (26) 
0.0

>  <TOX21_AR_BLA_Agonist_ch1>  (26) 
0.0

>  <TOX21_AR_BLA_Agonist_ch2>  (26) 
0.0

>  <TOX21_AR_BLA_Agonist_ratio>  (26) 
0.0

>  <TOX21_AR_BLA_Antagonist_ch1>  (26) 
0.0

>  <TOX21_AR_BLA_Antagonist_ch2>  (26) 
0.0

>  <TOX21_AR_BLA_Antagonist_ratio>  (26) 
0.0

>  <TOX21_AR_BLA_Antagonist_viability>  (26) 
0.0

>  <TOX21_AR_LUC_MDAKB2_Agonist>  (26) 
0.0

>  <TOX21_AR_LUC_MDAKB2_Agonist_3uM_Nilutamide>  (26) 
0.0

>  <TOX21_AR_LUC_MDAKB2_Agonist_3uM_Nilutamide_viability>  (26) 
0.0

>  <TOX21_AR_LUC_MDAKB2_Antagonist_0.5nM_R1881>  (26) 
0.0

>  <TOX21_AR_LUC_MDAKB2_Antagonist_0.5nM_R1881_viability>  (26) 
0.0

>  <TOX21_AR_LUC_MDAKB2_Antagonist_10nM_R1881>  (26) 
0.0

>  <TOX21_AR_LUC_MDAKB2_Antagonist_10nM_R1881_viability>  (26) 
0.0

>  <TOX21_AhR_LUC_Agonist>  (26) 
0.0

>  <TOX21_Aromatase_Inhibition>  (26) 
0.0

>  <TOX21_Aromatase_Inhibition_viability>  (26) 
0.0

>  <TOX21_AutoFluor_HEK293_Cell_blue>  (26) 
0.0

>  <TOX21_AutoFluor_HEK293_Cell_green>  (26) 
0.0

>  <TOX21_AutoFluor_HEK293_Cell_red>  (26) 
0.0

>  <TOX21_AutoFluor_HEK293_Media_blue>  (26) 
0.0

>  <TOX21_AutoFluor_HEK293_Media_green>  (26) 
0.0

>  <TOX21_AutoFluor_HEK293_Media_red>  (26) 
0.0

>  <TOX21_AutoFluor_HEPG2_Cell_blue>  (26) 
0.0

>  <TOX21_AutoFluor_HEPG2_Cell_green>  (26) 
0.0

>  <TOX21_AutoFluor_HEPG2_Cell_red>  (26) 
0.0

>  <TOX21_AutoFluor_HEPG2_Media_blue>  (26) 
0.0

>  <TOX21_AutoFluor_HEPG2_Media_green>  (26) 
0.0

>  <TOX21_AutoFluor_HEPG2_Media_red>  (26) 
0.0

>  <TOX21_CAR_Agonist>  (26) 
0.0

>  <TOX21_CAR_Antagonist>  (26) 
0.0

>  <TOX21_CAR_Antagonist_viability>  (26) 
0.0

>  <TOX21_CASP3_CHO>  (26) 
0.0

>  <TOX21_CASP3_CHO_viability>  (26) 
0.0

>  <TOX21_CASP3_HEPG2>  (26) 
0.0

>  <TOX21_CASP3_HEPG2_viability>  (26) 
0.0

>  <TOX21_DT40>  (26) 
0.0

>  <TOX21_DT40_100>  (26) 
0.0

>  <TOX21_DT40_657>  (26) 
0.0

>  <TOX21_ELG1_LUC_Agonist>  (26) 
0.0

>  <TOX21_ELG1_LUC_Agonist_viability>  (26) 
0.0

>  <TOX21_ERR_Agonist>  (26) 
0.0

>  <TOX21_ERR_Antagonist>  (26) 
0.0

>  <TOX21_ERa_BLA_Agonist_ch1>  (26) 
0.0

>  <TOX21_ERa_BLA_Agonist_ch2>  (26) 
0.0

>  <TOX21_ERa_BLA_Agonist_ratio>  (26) 
0.0

>  <TOX21_ERa_BLA_Antagonist_ch1>  (26) 
0.0

>  <TOX21_ERa_BLA_Antagonist_ch2>  (26) 
0.0

>  <TOX21_ERa_BLA_Antagonist_ratio>  (26) 
0.0

>  <TOX21_ERa_BLA_Antagonist_viability>  (26) 
0.0

>  <TOX21_ERa_LUC_VM7_Agonist>  (26) 
0.0

>  <TOX21_ERa_LUC_VM7_Agonist_10nM_ICI182780>  (26) 
0.0

>  <TOX21_ERa_LUC_VM7_Agonist_10nM_ICI182780_viability>  (26) 
0.0

>  <TOX21_ERa_LUC_VM7_Antagonist_0.1nM_E2>  (26) 
0.0

>  <TOX21_ERa_LUC_VM7_Antagonist_0.1nM_E2_viability>  (26) 
0.0

>  <TOX21_ERa_LUC_VM7_Antagonist_0.5nM_E2>  (26) 
0.0

>  <TOX21_ERa_LUC_VM7_Antagonist_0.5nM_E2_viability>  (26) 
0.0

>  <TOX21_ERb_BLA_Agonist_ch1>  (26) 
0.0

>  <TOX21_ERb_BLA_Agonist_ch2>  (26) 
0.0

>  <TOX21_ERb_BLA_Agonist_ratio>  (26) 
0.0

>  <TOX21_ERb_BLA_Agonist_viability>  (26) 
0.0

>  <TOX21_ERb_BLA_Antagonist_ch1>  (26) 
0.0

>  <TOX21_ERb_BLA_Antagonist_ch2>  (26) 
0.0

>  <TOX21_ERb_BLA_Antagonist_ratio>  (26) 
0.0

>  <TOX21_ERb_BLA_Antagonist_viability>  (26) 
0.0

>  <TOX21_ESRE_BLA_ch1>  (26) 
0.0

>  <TOX21_ESRE_BLA_ch2>  (26) 
0.0

>  <TOX21_ESRE_BLA_ratio>  (26) 
0.0

>  <TOX21_ESRE_BLA_viability>  (26) 
0.0

>  <TOX21_FXR_BLA_Antagonist_ch1>  (26) 
0.0

>  <TOX21_FXR_BLA_Antagonist_ch2>  (26) 
0.0

>  <TOX21_FXR_BLA_agonist_ch1>  (26) 
0.0

>  <TOX21_FXR_BLA_agonist_ch2>  (26) 
0.0

>  <TOX21_FXR_BLA_agonist_ratio>  (26) 
0.0

>  <TOX21_FXR_BLA_agonist_viability>  (26) 
0.0

>  <TOX21_FXR_BLA_antagonist_ratio>  (26) 
0.0

>  <TOX21_FXR_BLA_antagonist_viability>  (26) 
0.0

>  <TOX21_GR_BLA_Agonist_ch1>  (26) 
0.0

>  <TOX21_GR_BLA_Agonist_ch2>  (26) 
0.0

>  <TOX21_GR_BLA_Agonist_ratio>  (26) 
0.0

>  <TOX21_GR_BLA_Antagonist_ch1>  (26) 
0.0

>  <TOX21_GR_BLA_Antagonist_ch2>  (26) 
0.0

>  <TOX21_GR_BLA_Antagonist_ratio>  (26) 
0.0

>  <TOX21_GR_BLA_Antagonist_viability>  (26) 
0.0

>  <TOX21_H2AX_HTRF_CHO_Agonist_ch1>  (26) 
0.0

>  <TOX21_H2AX_HTRF_CHO_Agonist_ch2>  (26) 
0.0

>  <TOX21_H2AX_HTRF_CHO_Agonist_ratio>  (26) 
0.0

>  <TOX21_H2AX_HTRF_CHO_viability>  (26) 
0.0

>  <TOX21_HDAC_Inhibition>  (26) 
0.0

>  <TOX21_HDAC_Inhibition_viability>  (26) 
0.0

>  <TOX21_HRE_BLA_Agonist_ch1>  (26) 
0.0

>  <TOX21_HRE_BLA_Agonist_ch2>  (26) 
0.0

>  <TOX21_HRE_BLA_Agonist_ratio>  (26) 
0.0

>  <TOX21_HRE_BLA_Agonist_viability>  (26) 
0.0

>  <TOX21_HSE_BLA_agonist_ch1>  (26) 
0.0

>  <TOX21_HSE_BLA_agonist_ch2>  (26) 
0.0

>  <TOX21_HSE_BLA_agonist_ratio>  (26) 
0.0

>  <TOX21_HSE_BLA_agonist_viability>  (26) 
0.0

>  <TOX21_LUC_Biochem>  (26) 
0.0

>  <TOX21_MMP_fitc>  (26) 
0.0

>  <TOX21_MMP_ratio_down>  (26) 
1.0

>  <TOX21_MMP_ratio_up>  (26) 
0.0

>  <TOX21_MMP_rhodamine>  (26) 
1.0

>  <TOX21_MMP_viability>  (26) 
0.0

>  <TOX21_NFkB_BLA_agonist_ch1>  (26) 
0.0

>  <TOX21_NFkB_BLA_agonist_ch2>  (26) 
0.0

>  <TOX21_NFkB_BLA_agonist_ratio>  (26) 
0.0

>  <TOX21_NFkB_BLA_agonist_viability>  (26) 
0.0

>  <TOX21_PGC_ERR_Agonist>  (26) 
0.0

>  <TOX21_PGC_ERR_Antagonist>  (26) 
0.0

>  <TOX21_PGC_ERR_viability>  (26) 
0.0

>  <TOX21_PPARd_BLA_Agonist_viability>  (26) 
0.0

>  <TOX21_PPARd_BLA_Antagonist_ch1>  (26) 
0.0

>  <TOX21_PPARd_BLA_Antagonist_ch2>  (26) 
0.0

>  <TOX21_PPARd_BLA_agonist_ch1>  (26) 
0.0

>  <TOX21_PPARd_BLA_agonist_ch2>  (26) 
0.0

>  <TOX21_PPARd_BLA_agonist_ratio>  (26) 
0.0

>  <TOX21_PPARd_BLA_antagonist_ratio>  (26) 
0.0

>  <TOX21_PPARd_BLA_antagonist_viability>  (26) 
0.0

>  <TOX21_PPARg_BLA_Agonist_ch1>  (26) 
0.0

>  <TOX21_PPARg_BLA_Agonist_ch2>  (26) 
0.0

>  <TOX21_PPARg_BLA_Agonist_ratio>  (26) 
0.0

>  <TOX21_PPARg_BLA_Antagonist_ch1>  (26) 
0.0

>  <TOX21_PPARg_BLA_Antagonist_ch2>  (26) 
0.0

>  <TOX21_PPARg_BLA_antagonist_ratio>  (26) 
0.0

>  <TOX21_PPARg_BLA_antagonist_viability>  (26) 
0.0

>  <TOX21_PR_BLA_Agonist_ch1>  (26) 
0.0

>  <TOX21_PR_BLA_Agonist_ch2>  (26) 
0.0

>  <TOX21_PR_BLA_Agonist_ratio>  (26) 
0.0

>  <TOX21_PR_BLA_Antagonist_ch1>  (26) 
0.0

>  <TOX21_PR_BLA_Antagonist_ch2>  (26) 
0.0

>  <TOX21_PR_BLA_Antagonist_ratio>  (26) 
0.0

>  <TOX21_PR_BLA_Antagonist_viability>  (26) 
0.0

>  <TOX21_PXR_Agonist>  (26) 
0.0

>  <TOX21_PXR_viability>  (26) 
0.0

>  <TOX21_RAR_LUC_Agonist>  (26) 
0.0

>  <TOX21_RAR_LUC_Agonist_viability>  (26) 
0.0

>  <TOX21_RAR_LUC_Antagonist_viability>  (26) 
0.0

>  <TOX21_RORg_LUC_CHO_Antagonist>  (26) 
0.0

>  <TOX21_RORg_LUC_CHO_Antagonist_viability>  (26) 
0.0

>  <TOX21_RT_HEK293_FLO_00hr_viability>  (26) 
0.0

>  <TOX21_RT_HEK293_FLO_08hr_viability>  (26) 
0.0

>  <TOX21_RT_HEK293_FLO_16hr_viability>  (26) 
0.0

>  <TOX21_RT_HEK293_FLO_24hr_viability>  (26) 
0.0

>  <TOX21_RT_HEK293_FLO_32hr_viability>  (26) 
1.0

>  <TOX21_RT_HEK293_FLO_40hr_viability>  (26) 
1.0

>  <TOX21_RT_HEK293_GLO_00hr_viability>  (26) 
0.0

>  <TOX21_RT_HEK293_GLO_08hr_viability>  (26) 
0.0

>  <TOX21_RT_HEK293_GLO_16hr_viability>  (26) 
0.0

>  <TOX21_RT_HEK293_GLO_24hr_viability>  (26) 
0.0

>  <TOX21_RT_HEK293_GLO_32hr_viability>  (26) 
0.0

>  <TOX21_RT_HEK293_GLO_40hr_viability>  (26) 
0.0

>  <TOX21_RT_HEPG2_FLO_00hr_ctrl_viability>  (26) 
0.0

>  <TOX21_RT_HEPG2_FLO_08hr_viability>  (26) 
0.0

>  <TOX21_RT_HEPG2_FLO_16hr_ctrl_viability>  (26) 
1.0

>  <TOX21_RT_HEPG2_FLO_24hr_viability>  (26) 
1.0

>  <TOX21_RT_HEPG2_FLO_32hr_ctrl_viability>  (26) 
1.0

>  <TOX21_RT_HEPG2_GLO_00hr_ctrl_viability>  (26) 
0.0

>  <TOX21_RT_HEPG2_GLO_08hr_ctrl_viability>  (26) 
0.0

>  <TOX21_RT_HEPG2_GLO_16hr_ctrl_viability>  (26) 
0.0

>  <TOX21_RT_HEPG2_GLO_24hr_ctrl_viability>  (26) 
0.0

>  <TOX21_RT_HEPG2_GLO_32hr_ctrl_viability>  (26) 
0.0

>  <TOX21_RT_HEPG2_GLO_40hr_viability>  (26) 
0.0

>  <TOX21_RXR_BLA_Agonist_ch1>  (26) 
0.0

>  <TOX21_RXR_BLA_Agonist_ch2>  (26) 
0.0

>  <TOX21_RXR_BLA_Agonist_ratio>  (26) 
0.0

>  <TOX21_RXR_BLA_Agonist_viability>  (26) 
0.0

>  <TOX21_SBE_BLA_Agonist_ch1>  (26) 
0.0

>  <TOX21_SBE_BLA_Agonist_ch2>  (26) 
0.0

>  <TOX21_SBE_BLA_Agonist_ratio>  (26) 
0.0

>  <TOX21_SBE_BLA_Agonist_viability>  (26) 
0.0

>  <TOX21_SBE_BLA_Antagonist_ch1>  (26) 
0.0

>  <TOX21_SBE_BLA_Antagonist_ch2>  (26) 
0.0

>  <TOX21_SBE_BLA_Antagonist_ratio>  (26) 
0.0

>  <TOX21_SBE_BLA_Antagonist_viability>  (26) 
0.0

>  <TOX21_SSH_3T3_GLI3_Agonist>  (26) 
0.0

>  <TOX21_SSH_3T3_GLI3_Agonist_viability>  (26) 
0.0

>  <TOX21_SSH_3T3_GLI3_Antagonist>  (26) 
0.0

>  <TOX21_SSH_3T3_GLI3_Antagonist_viability>  (26) 
0.0

>  <TOX21_TRHR_HEK293_Agonist>  (26) 
0.0

>  <TOX21_TRHR_HEK293_Antagonist>  (26) 
0.0

>  <TOX21_TR_LUC_GH3_Agonist>  (26) 
0.0

>  <TOX21_TR_LUC_GH3_Antagonist>  (26) 
0.0

>  <TOX21_TR_LUC_GH3_Antagonist_viability>  (26) 
0.0

>  <TOX21_TSHR_Agonist_ch2>  (26) 
0.0

>  <TOX21_TSHR_Antagonist_ch2>  (26) 
0.0

>  <TOX21_TSHR_Antagonist_ratio>  (26) 
0.0

>  <TOX21_TSHR_HTRF_Agonist_ch1>  (26) 
0.0

>  <TOX21_TSHR_HTRF_Antagonist_ch1>  (26) 
0.0

>  <TOX21_TSHR_wt_HTRF_ch1>  (26) 
0.0

>  <TOX21_TSHR_wt_ch2>  (26) 
0.0

>  <TOX21_TSHR_wt_ratio>  (26) 
0.0

>  <TOX21_VDR_BLA_Agonist_viability>  (26) 
0.0

>  <TOX21_VDR_BLA_Antagonist_ch1>  (26) 
0.0

>  <TOX21_VDR_BLA_Antagonist_ch2>  (26) 
0.0

>  <TOX21_VDR_BLA_agonist_ch1>  (26) 
0.0

>  <TOX21_VDR_BLA_agonist_ch2>  (26) 
0.0

>  <TOX21_VDR_BLA_agonist_ratio>  (26) 
0.0

>  <TOX21_VDR_BLA_antagonist_ratio>  (26) 
0.0

>  <TOX21_VDR_BLA_antagonist_viability>  (26) 
0.0

>  <TOX21_p53_BLA_p1_ch1>  (26) 
0.0

>  <TOX21_p53_BLA_p1_ch2>  (26) 
0.0

>  <TOX21_p53_BLA_p1_ratio>  (26) 
0.0

>  <TOX21_p53_BLA_p1_viability>  (26) 
0.0

>  <TOX21_p53_BLA_p2_ch1>  (26) 
0.0

>  <TOX21_p53_BLA_p2_ch2>  (26) 
0.0

>  <TOX21_p53_BLA_p2_ratio>  (26) 
0.0

>  <TOX21_p53_BLA_p2_viability>  (26) 
0.0

>  <TOX21_p53_BLA_p3_ch1>  (26) 
0.0

>  <TOX21_p53_BLA_p3_ch2>  (26) 
0.0

>  <TOX21_p53_BLA_p3_ratio>  (26) 
0.0

>  <TOX21_p53_BLA_p4_ch1>  (26) 
0.0

>  <TOX21_p53_BLA_p4_ch2>  (26) 
0.0

>  <TOX21_p53_BLA_p4_ratio>  (26) 
0.0

>  <TOX21_p53_BLA_p4_viability>  (26) 
0.0

>  <TOX21_p53_BLA_p5_ch1>  (26) 
0.0

>  <TOX21_p53_BLA_p5_ch2>  (26) 
0.0

>  <TOX21_p53_BLA_p5_ratio>  (26) 
0.0

>  <TOX21_p53_BLA_p5_viability>  (26) 
0.0

>  <Tanguay_ZF_120hpf_AXIS_up>  (26) 
0.0

>  <Tanguay_ZF_120hpf_ActivityScore>  (26) 
1.0

>  <Tanguay_ZF_120hpf_BRAI_up>  (26) 
0.0

>  <Tanguay_ZF_120hpf_CFIN_up>  (26) 
0.0

>  <Tanguay_ZF_120hpf_CIRC_up>  (26) 
0.0

>  <Tanguay_ZF_120hpf_EYE_up>  (26) 
0.0

>  <Tanguay_ZF_120hpf_JAW_up>  (26) 
0.0

>  <Tanguay_ZF_120hpf_MORT_up>  (26) 
1.0

>  <Tanguay_ZF_120hpf_NC_up>  (26) 
0.0

>  <Tanguay_ZF_120hpf_OTIC_up>  (26) 
0.0

>  <Tanguay_ZF_120hpf_PE_up>  (26) 
0.0

>  <Tanguay_ZF_120hpf_PFIN_up>  (26) 
0.0

>  <Tanguay_ZF_120hpf_PIG_up>  (26) 
1.0

>  <Tanguay_ZF_120hpf_SNOU_up>  (26) 
0.0

>  <Tanguay_ZF_120hpf_SOMI_up>  (26) 
0.0

>  <Tanguay_ZF_120hpf_SWIM_up>  (26) 
0.0

>  <Tanguay_ZF_120hpf_TRUN_up>  (26) 
0.0

>  <Tanguay_ZF_120hpf_TR_up>  (26) 
0.0

>  <Tanguay_ZF_120hpf_YSE_up>  (26) 
0.0

>  <UPITT_HCI_U2OS_AR_TIF2_Nucleoli_Agonist>  (26) 
1.0

>  <UPITT_HCI_U2OS_AR_TIF2_Nucleoli_Antagonist>  (26) 
1.0

>  <UPITT_HCI_U2OS_AR_TIF2_Nucleoli_Cytoplasm_Ratio_Agonist>  (26) 
1.0

>  <UPITT_HCI_U2OS_AR_TIF2_Nucleoli_Cytoplasm_Ratio_Antagonist>  (26) 
0.0

>  <NVS_NR_mERa>  (26) 
1

$$$$

     RDKit          3D

 16 16  0  0  0  0  0  0  0  0999 V2000
    0.0000    0.0000    0.0000 C   0  0  0  0  0  0  0  0  0  0  0  0
    0.0000    0.0000    0.0000 C   0  0  0  0  0  0  0  0  0  0  0  0
    0.0000    0.0000    0.0000 C   0  0  0  0  0  0  0  0  0  0  0  0
    0.0000    0.0000    0.0000 C   0  0  0  0  0  0  0  0  0  0  0  0
    0.0000    0.0000    0.0000 C   0  0  0  0  0  0  0  0  0  0  0  0
    0.0000    0.0000    0.0000 C   0  0  0  0  0  0  0  0  0  0  0  0
    0.0000    0.0000    0.0000 C   0  0  0  0  0  0  0  0  0  0  0  0
    0.0000    0.0000    0.0000 C   0  0  0  0  0  0  0  0  0  0  0  0
    0.0000    0.0000    0.0000 C   0  0  0  0  0  0  0  0  0  0  0  0
    0.0000    0.0000    0.0000 C   0  0  0  0  0  0  0  0  0  0  0  0
    0.0000    0.0000    0.0000 C   0  0  0  0  0  0  0  0  0  0  0  0
    0.0000    0.0000    0.0000 C   0  0  0  0  0  0  0  0  0  0  0  0
    0.0000    0.0000    0.0000 C   0  0  0  0  0  0  0  0  0  0  0  0
    0.0000    0.0000    0.0000 C   0  0  0  0  0  0  0  0  0  0  0  0
    0.0000    0.0000    0.0000 C   0  0  0  0  0  0  0  0  0  0  0  0
    0.0000    0.0000    0.0000 O   0  0  0  0  0  0  0  0  0  0  0  0
  1  2  1  0
  2  3  1  0
  3  4  1  0
  4  5  1  0
  5  6  1  0
  6  7  1  0
  7  8  1  0
  8  9  1  0
  9 10  1  0
 10 11  2  0
 11 12  1  0
 12 13  2  0
 13 14  1  0
 14 15  2  0
 13 16  1  0
 15 10  1  0
M  END
>  <CASRN>  (27) 
104-40-5

>  <Name>  (27) 
Nonylphenol

>  <Active>  (27) 
5

>  <Inactive>  (27) 
4

>  <Bioactivity>  (27) 
Active

>  <Min LEL>  (27) 
75.0

>  <Max HDT>  (27) 
200.0

>  <Class>  (27) 
1

>  <Code>  (27) 
C104405

>  <NVS_NR_hER>  (27) 
0.0

>  <NVS_NR_hGR>  (27) 
0.0

>  <NVS_NR_rAR>  (27) 
0.0

>  <OT_ER_ERaERb_1440>  (27) 
1.0

>  <OT_FXR_FXRSRC1_0480>  (27) 
0.0

>  <OT_PPARg_PPARgSRC1_1440>  (27) 
0.0

>  <OT_FXR_FXRSRC1_1440>  (27) 
0.0

>  <OT_NURR1_NURR1RXRa_0480>  (27) 
0.0

>  <OT_NURR1_NURR1RXRa_1440>  (27) 
1.0

>  <OT_PPARg_PPARgSRC1_0480>  (27) 
0.0

>  <OT_AR_ARELUC_AG_1440>  (27) 
0.0

>  <OT_ERa_EREGFP_0120>  (27) 
0.0

>  <BSK_3C_HLADR_down>  (27) 
1.0

>  <BSK_3C_Vis_down>  (27) 
1.0

>  <BSK_3C_uPAR_down>  (27) 
1.0

>  <ATG_CAR_TRANS_up>  (27) 
0.0

>  <ATG_E2F_CIS_dn>  (27) 
0.0

>  <ATG_EGR_CIS_up>  (27) 
0.0

>  <ATG_ERa_TRANS_dn>  (27) 
0.0

>  <ATG_ERa_TRANS_up>  (27) 
1.0

>  <ATG_FXR_TRANS_dn>  (27) 
0.0

>  <ATG_GLI_CIS_dn>  (27) 
0.0

>  <ATG_GRE_CIS_up>  (27) 
0.0

>  <ATG_LXRa_TRANS_dn>  (27) 
0.0

>  <ATG_LXRa_TRANS_up>  (27) 
0.0

>  <ATG_NRF1_CIS_up>  (27) 
0.0

>  <ATG_NURR1_TRANS_up>  (27) 
0.0

>  <ATG_Sox_CIS_dn>  (27) 
0.0

>  <ATG_Sox_CIS_up>  (27) 
0.0

>  <ATG_Sp1_CIS_up>  (27) 
0.0

>  <ATG_TGFb_CIS_up>  (27) 
0.0

>  <TOX21_ARE_BLA_agonist_ratio>  (27) 
1.0

>  <TOX21_RAR_LUC_Antagonist>  (27) 
0.0

>  <ATG_LXRb_TRANS_dn>  (27) 
0.0

>  <ATG_CAR_TRANS_dn>  (27) 
0.0

>  <ATG_BRE_CIS_dn>  (27) 
0.0

>  <ATG_E2F_CIS_up>  (27) 
0.0

>  <TOX21_TSHR_Agonist_ratio>  (27) 
0.0

>  <ACEA_ER_80hr>  (27) 
1.0

>  <TOX21_CAR_Agonist_viabillity>  (27) 
1.0

>  <TOX21_PR_BLA_Agonist_viability>  (27) 
0.0

>  <TOX21_RT_HEPG2_FLO_40hr_ctrl_viability>  (27) 
1.0

>  <TOX21_AhR_LUC_Agonist_viability>  (27) 
0.0

>  <TOX21_ERR_viability>  (27) 
1.0

>  <TOX21_p53_BLA_p3_viability>  (27) 
0.0

>  <NVS_NR_cAR>  (27) 
0.0

>  <NVS_NR_hPR>  (27) 
0.0

>  <NVS_NR_hAR>  (27) 
0.0

>  <NVS_NR_bER>  (27) 
0.0

>  <ACEA_AR_agonist_80hr>  (27) 
0.0

>  <ACEA_AR_agonist_AUC_viability>  (27) 
1.0

>  <ACEA_AR_antagonist_80hr>  (27) 
1.0

>  <ACEA_AR_antagonist_AUC_viability>  (27) 
1.0

>  <ACEA_ER_AUC_viability>  (27) 
1.0

>  <APR_HepG2_CellCycleArrest_24h_dn>  (27) 
0.0

>  <APR_HepG2_CellCycleArrest_24h_up>  (27) 
0.0

>  <APR_HepG2_CellCycleArrest_72h_dn>  (27) 
0.0

>  <APR_HepG2_CellCycleArrest_72h_up>  (27) 
0.0

>  <APR_HepG2_CellLoss_24h_dn>  (27) 
0.0

>  <APR_HepG2_CellLoss_24h_up>  (27) 
0.0

>  <APR_HepG2_CellLoss_72h_dn>  (27) 
0.0

>  <APR_HepG2_CellLoss_72h_up>  (27) 
0.0

>  <APR_HepG2_MicrotubuleCSK_24h_dn>  (27) 
0.0

>  <APR_HepG2_MicrotubuleCSK_24h_up>  (27) 
0.0

>  <APR_HepG2_MicrotubuleCSK_72h_dn>  (27) 
0.0

>  <APR_HepG2_MicrotubuleCSK_72h_up>  (27) 
0.0

>  <APR_HepG2_MitoMass_24h_dn>  (27) 
0.0

>  <APR_HepG2_MitoMass_24h_up>  (27) 
0.0

>  <APR_HepG2_MitoMass_72h_dn>  (27) 
0.0

>  <APR_HepG2_MitoMass_72h_up>  (27) 
0.0

>  <APR_HepG2_MitoMembPot_24h_dn>  (27) 
0.0

>  <APR_HepG2_MitoMembPot_24h_up>  (27) 
0.0

>  <APR_HepG2_MitoMembPot_72h_dn>  (27) 
0.0

>  <APR_HepG2_MitoMembPot_72h_up>  (27) 
0.0

>  <APR_HepG2_MitoticArrest_24h_dn>  (27) 
0.0

>  <APR_HepG2_MitoticArrest_24h_up>  (27) 
0.0

>  <APR_HepG2_MitoticArrest_72h_dn>  (27) 
0.0

>  <APR_HepG2_MitoticArrest_72h_up>  (27) 
0.0

>  <APR_HepG2_NuclearSize_24h_dn>  (27) 
0.0

>  <APR_HepG2_NuclearSize_24h_up>  (27) 
0.0

>  <APR_HepG2_NuclearSize_72h_dn>  (27) 
0.0

>  <APR_HepG2_NuclearSize_72h_up>  (27) 
0.0

>  <APR_HepG2_OxidativeStress_24h_dn>  (27) 
0.0

>  <APR_HepG2_OxidativeStress_24h_up>  (27) 
0.0

>  <APR_HepG2_OxidativeStress_72h_dn>  (27) 
0.0

>  <APR_HepG2_OxidativeStress_72h_up>  (27) 
0.0

>  <APR_HepG2_StressKinase_24h_dn>  (27) 
0.0

>  <APR_HepG2_StressKinase_24h_up>  (27) 
0.0

>  <APR_HepG2_StressKinase_72h_dn>  (27) 
0.0

>  <APR_HepG2_StressKinase_72h_up>  (27) 
0.0

>  <APR_HepG2_p53Act_24h_dn>  (27) 
0.0

>  <APR_HepG2_p53Act_24h_up>  (27) 
0.0

>  <APR_HepG2_p53Act_72h_dn>  (27) 
0.0

>  <APR_HepG2_p53Act_72h_up>  (27) 
0.0

>  <ATG_AP_1_CIS_dn>  (27) 
0.0

>  <ATG_AP_1_CIS_up>  (27) 
0.0

>  <ATG_AP_2_CIS_dn>  (27) 
0.0

>  <ATG_AP_2_CIS_up>  (27) 
0.0

>  <ATG_AR_TRANS_dn>  (27) 
0.0

>  <ATG_AR_TRANS_up>  (27) 
0.0

>  <ATG_Ahr_CIS_dn>  (27) 
0.0

>  <ATG_Ahr_CIS_up>  (27) 
0.0

>  <ATG_BRE_CIS_up>  (27) 
0.0

>  <ATG_CMV_CIS_dn>  (27) 
0.0

>  <ATG_CMV_CIS_up>  (27) 
0.0

>  <ATG_CRE_CIS_dn>  (27) 
0.0

>  <ATG_CRE_CIS_up>  (27) 
0.0

>  <ATG_C_EBP_CIS_dn>  (27) 
0.0

>  <ATG_C_EBP_CIS_up>  (27) 
0.0

>  <ATG_DR4_LXR_CIS_dn>  (27) 
1.0

>  <ATG_DR4_LXR_CIS_up>  (27) 
0.0

>  <ATG_DR5_CIS_dn>  (27) 
0.0

>  <ATG_DR5_CIS_up>  (27) 
0.0

>  <ATG_EGR_CIS_dn>  (27) 
0.0

>  <ATG_ERE_CIS_dn>  (27) 
0.0

>  <ATG_ERE_CIS_up>  (27) 
1.0

>  <ATG_ERRa_TRANS_dn>  (27) 
0.0

>  <ATG_ERRa_TRANS_up>  (27) 
0.0

>  <ATG_ERRg_TRANS_dn>  (27) 
0.0

>  <ATG_ERRg_TRANS_up>  (27) 
0.0

>  <ATG_E_Box_CIS_dn>  (27) 
1.0

>  <ATG_E_Box_CIS_up>  (27) 
0.0

>  <ATG_Ets_CIS_dn>  (27) 
0.0

>  <ATG_Ets_CIS_up>  (27) 
0.0

>  <ATG_FXR_TRANS_up>  (27) 
0.0

>  <ATG_FoxA2_CIS_dn>  (27) 
0.0

>  <ATG_FoxA2_CIS_up>  (27) 
0.0

>  <ATG_FoxO_CIS_dn>  (27) 
0.0

>  <ATG_FoxO_CIS_up>  (27) 
0.0

>  <ATG_GAL4_TRANS_dn>  (27) 
0.0

>  <ATG_GAL4_TRANS_up>  (27) 
0.0

>  <ATG_GATA_CIS_dn>  (27) 
0.0

>  <ATG_GATA_CIS_up>  (27) 
0.0

>  <ATG_GLI_CIS_up>  (27) 
0.0

>  <ATG_GRE_CIS_dn>  (27) 
0.0

>  <ATG_GR_TRANS_dn>  (27) 
0.0

>  <ATG_GR_TRANS_up>  (27) 
0.0

>  <ATG_HIF1a_CIS_dn>  (27) 
0.0

>  <ATG_HIF1a_CIS_up>  (27) 
0.0

>  <ATG_HNF4a_TRANS_dn>  (27) 
0.0

>  <ATG_HNF4a_TRANS_up>  (27) 
0.0

>  <ATG_HNF6_CIS_dn>  (27) 
0.0

>  <ATG_HNF6_CIS_up>  (27) 
0.0

>  <ATG_HSE_CIS_dn>  (27) 
0.0

>  <ATG_HSE_CIS_up>  (27) 
0.0

>  <ATG_IR1_CIS_dn>  (27) 
0.0

>  <ATG_IR1_CIS_up>  (27) 
0.0

>  <ATG_ISRE_CIS_dn>  (27) 
0.0

>  <ATG_ISRE_CIS_up>  (27) 
0.0

>  <ATG_LXRb_TRANS_up>  (27) 
0.0

>  <ATG_MRE_CIS_dn>  (27) 
0.0

>  <ATG_MRE_CIS_up>  (27) 
0.0

>  <ATG_M_06_CIS_dn>  (27) 
0.0

>  <ATG_M_06_CIS_up>  (27) 
0.0

>  <ATG_M_06_TRANS_dn>  (27) 
0.0

>  <ATG_M_06_TRANS_up>  (27) 
0.0

>  <ATG_M_19_CIS_dn>  (27) 
0.0

>  <ATG_M_19_CIS_up>  (27) 
0.0

>  <ATG_M_19_TRANS_dn>  (27) 
0.0

>  <ATG_M_19_TRANS_up>  (27) 
0.0

>  <ATG_M_32_CIS_dn>  (27) 
0.0

>  <ATG_M_32_CIS_up>  (27) 
0.0

>  <ATG_M_32_TRANS_dn>  (27) 
0.0

>  <ATG_M_32_TRANS_up>  (27) 
0.0

>  <ATG_M_61_CIS_dn>  (27) 
0.0

>  <ATG_M_61_CIS_up>  (27) 
0.0

>  <ATG_M_61_TRANS_dn>  (27) 
0.0

>  <ATG_M_61_TRANS_up>  (27) 
0.0

>  <ATG_Myb_CIS_dn>  (27) 
0.0

>  <ATG_Myb_CIS_up>  (27) 
0.0

>  <ATG_Myc_CIS_dn>  (27) 
0.0

>  <ATG_Myc_CIS_up>  (27) 
0.0

>  <ATG_NFI_CIS_dn>  (27) 
0.0

>  <ATG_NFI_CIS_up>  (27) 
0.0

>  <ATG_NF_kB_CIS_dn>  (27) 
0.0

>  <ATG_NF_kB_CIS_up>  (27) 
0.0

>  <ATG_NRF1_CIS_dn>  (27) 
0.0

>  <ATG_NRF2_ARE_CIS_dn>  (27) 
0.0

>  <ATG_NRF2_ARE_CIS_up>  (27) 
1.0

>  <ATG_NURR1_TRANS_dn>  (27) 
0.0

>  <ATG_Oct_MLP_CIS_dn>  (27) 
0.0

>  <ATG_Oct_MLP_CIS_up>  (27) 
0.0

>  <ATG_PBREM_CIS_dn>  (27) 
0.0

>  <ATG_PBREM_CIS_up>  (27) 
0.0

>  <ATG_PPARa_TRANS_dn>  (27) 
0.0

>  <ATG_PPARa_TRANS_up>  (27) 
1.0

>  <ATG_PPARd_TRANS_dn>  (27) 
0.0

>  <ATG_PPARd_TRANS_up>  (27) 
1.0

>  <ATG_PPARg_TRANS_dn>  (27) 
0.0

>  <ATG_PPARg_TRANS_up>  (27) 
1.0

>  <ATG_PPRE_CIS_dn>  (27) 
0.0

>  <ATG_PPRE_CIS_up>  (27) 
0.0

>  <ATG_PXRE_CIS_dn>  (27) 
0.0

>  <ATG_PXRE_CIS_up>  (27) 
1.0

>  <ATG_PXR_TRANS_dn>  (27) 
0.0

>  <ATG_PXR_TRANS_up>  (27) 
0.0

>  <ATG_Pax6_CIS_dn>  (27) 
0.0

>  <ATG_Pax6_CIS_up>  (27) 
0.0

>  <ATG_RARa_TRANS_dn>  (27) 
0.0

>  <ATG_RARa_TRANS_up>  (27) 
0.0

>  <ATG_RARb_TRANS_dn>  (27) 
0.0

>  <ATG_RARb_TRANS_up>  (27) 
0.0

>  <ATG_RARg_TRANS_dn>  (27) 
0.0

>  <ATG_RARg_TRANS_up>  (27) 
0.0

>  <ATG_RORE_CIS_dn>  (27) 
0.0

>  <ATG_RORE_CIS_up>  (27) 
0.0

>  <ATG_RORb_TRANS_dn>  (27) 
0.0

>  <ATG_RORb_TRANS_up>  (27) 
0.0

>  <ATG_RORg_TRANS_dn>  (27) 
0.0

>  <ATG_RORg_TRANS_up>  (27) 
0.0

>  <ATG_RXRa_TRANS_dn>  (27) 
0.0

>  <ATG_RXRa_TRANS_up>  (27) 
0.0

>  <ATG_RXRb_TRANS_dn>  (27) 
0.0

>  <ATG_RXRb_TRANS_up>  (27) 
1.0

>  <ATG_SREBP_CIS_dn>  (27) 
0.0

>  <ATG_SREBP_CIS_up>  (27) 
0.0

>  <ATG_STAT3_CIS_dn>  (27) 
0.0

>  <ATG_STAT3_CIS_up>  (27) 
0.0

>  <ATG_Sp1_CIS_dn>  (27) 
0.0

>  <ATG_TAL_CIS_dn>  (27) 
0.0

>  <ATG_TAL_CIS_up>  (27) 
0.0

>  <ATG_TA_CIS_dn>  (27) 
0.0

>  <ATG_TA_CIS_up>  (27) 
0.0

>  <ATG_TCF_b_cat_CIS_dn>  (27) 
0.0

>  <ATG_TCF_b_cat_CIS_up>  (27) 
0.0

>  <ATG_TGFb_CIS_dn>  (27) 
0.0

>  <ATG_THRa1_TRANS_dn>  (27) 
0.0

>  <ATG_THRa1_TRANS_up>  (27) 
0.0

>  <ATG_VDRE_CIS_dn>  (27) 
0.0

>  <ATG_VDRE_CIS_up>  (27) 
0.0

>  <ATG_VDR_TRANS_dn>  (27) 
0.0

>  <ATG_VDR_TRANS_up>  (27) 
0.0

>  <ATG_XTT_Cytotoxicity_up>  (27) 
1.0

>  <ATG_Xbp1_CIS_dn>  (27) 
0.0

>  <ATG_Xbp1_CIS_up>  (27) 
0.0

>  <ATG_p53_CIS_dn>  (27) 
0.0

>  <ATG_p53_CIS_up>  (27) 
0.0

>  <BSK_3C_Eselectin_down>  (27) 
1.0

>  <BSK_3C_Eselectin_up>  (27) 
0.0

>  <BSK_3C_HLADR_up>  (27) 
0.0

>  <BSK_3C_ICAM1_down>  (27) 
1.0

>  <BSK_3C_ICAM1_up>  (27) 
0.0

>  <BSK_3C_IL8_down>  (27) 
1.0

>  <BSK_3C_IL8_up>  (27) 
0.0

>  <BSK_3C_MCP1_down>  (27) 
1.0

>  <BSK_3C_MCP1_up>  (27) 
0.0

>  <BSK_3C_MIG_down>  (27) 
1.0

>  <BSK_3C_MIG_up>  (27) 
0.0

>  <BSK_3C_Proliferation_down>  (27) 
1.0

>  <BSK_3C_Proliferation_up>  (27) 
0.0

>  <BSK_3C_SRB_down>  (27) 
1.0

>  <BSK_3C_SRB_up>  (27) 
0.0

>  <BSK_3C_Thrombomodulin_down>  (27) 
1.0

>  <BSK_3C_Thrombomodulin_up>  (27) 
0.0

>  <BSK_3C_TissueFactor_down>  (27) 
1.0

>  <BSK_3C_TissueFactor_up>  (27) 
0.0

>  <BSK_3C_VCAM1_down>  (27) 
1.0

>  <BSK_3C_VCAM1_up>  (27) 
0.0

>  <BSK_3C_Vis_up>  (27) 
0.0

>  <BSK_3C_uPAR_up>  (27) 
0.0

>  <BSK_4H_Eotaxin3_down>  (27) 
1.0

>  <BSK_4H_Eotaxin3_up>  (27) 
0.0

>  <BSK_4H_MCP1_down>  (27) 
1.0

>  <BSK_4H_MCP1_up>  (27) 
0.0

>  <BSK_4H_Pselectin_down>  (27) 
1.0

>  <BSK_4H_Pselectin_up>  (27) 
0.0

>  <BSK_4H_SRB_down>  (27) 
1.0

>  <BSK_4H_SRB_up>  (27) 
0.0

>  <BSK_4H_VCAM1_down>  (27) 
1.0

>  <BSK_4H_VCAM1_up>  (27) 
0.0

>  <BSK_4H_VEGFRII_down>  (27) 
1.0

>  <BSK_4H_VEGFRII_up>  (27) 
0.0

>  <BSK_4H_uPAR_down>  (27) 
1.0

>  <BSK_4H_uPAR_up>  (27) 
0.0

>  <BSK_BE3C_HLADR_down>  (27) 
1.0

>  <BSK_BE3C_HLADR_up>  (27) 
0.0

>  <BSK_BE3C_IL1a_down>  (27) 
1.0

>  <BSK_BE3C_IL1a_up>  (27) 
0.0

>  <BSK_BE3C_IP10_down>  (27) 
1.0

>  <BSK_BE3C_IP10_up>  (27) 
0.0

>  <BSK_BE3C_MIG_down>  (27) 
1.0

>  <BSK_BE3C_MIG_up>  (27) 
0.0

>  <BSK_BE3C_MMP1_down>  (27) 
1.0

>  <BSK_BE3C_MMP1_up>  (27) 
0.0

>  <BSK_BE3C_PAI1_down>  (27) 
1.0

>  <BSK_BE3C_PAI1_up>  (27) 
0.0

>  <BSK_BE3C_SRB_down>  (27) 
1.0

>  <BSK_BE3C_SRB_up>  (27) 
0.0

>  <BSK_BE3C_TGFb1_down>  (27) 
1.0

>  <BSK_BE3C_TGFb1_up>  (27) 
0.0

>  <BSK_BE3C_tPA_down>  (27) 
1.0

>  <BSK_BE3C_tPA_up>  (27) 
0.0

>  <BSK_BE3C_uPAR_down>  (27) 
1.0

>  <BSK_BE3C_uPAR_up>  (27) 
0.0

>  <BSK_BE3C_uPA_down>  (27) 
1.0

>  <BSK_BE3C_uPA_up>  (27) 
0.0

>  <BSK_CASM3C_HLADR_down>  (27) 
1.0

>  <BSK_CASM3C_HLADR_up>  (27) 
0.0

>  <BSK_CASM3C_IL6_down>  (27) 
1.0

>  <BSK_CASM3C_IL6_up>  (27) 
0.0

>  <BSK_CASM3C_IL8_down>  (27) 
1.0

>  <BSK_CASM3C_IL8_up>  (27) 
0.0

>  <BSK_CASM3C_LDLR_down>  (27) 
1.0

>  <BSK_CASM3C_LDLR_up>  (27) 
0.0

>  <BSK_CASM3C_MCP1_down>  (27) 
1.0

>  <BSK_CASM3C_MCP1_up>  (27) 
0.0

>  <BSK_CASM3C_MCSF_down>  (27) 
1.0

>  <BSK_CASM3C_MCSF_up>  (27) 
0.0

>  <BSK_CASM3C_MIG_down>  (27) 
1.0

>  <BSK_CASM3C_MIG_up>  (27) 
0.0

>  <BSK_CASM3C_Proliferation_down>  (27) 
1.0

>  <BSK_CASM3C_Proliferation_up>  (27) 
0.0

>  <BSK_CASM3C_SAA_down>  (27) 
1.0

>  <BSK_CASM3C_SAA_up>  (27) 
0.0

>  <BSK_CASM3C_SRB_down>  (27) 
1.0

>  <BSK_CASM3C_SRB_up>  (27) 
0.0

>  <BSK_CASM3C_Thrombomodulin_down>  (27) 
1.0

>  <BSK_CASM3C_Thrombomodulin_up>  (27) 
0.0

>  <BSK_CASM3C_TissueFactor_down>  (27) 
1.0

>  <BSK_CASM3C_TissueFactor_up>  (27) 
0.0

>  <BSK_CASM3C_VCAM1_down>  (27) 
1.0

>  <BSK_CASM3C_VCAM1_up>  (27) 
0.0

>  <BSK_CASM3C_uPAR_down>  (27) 
0.0

>  <BSK_CASM3C_uPAR_up>  (27) 
0.0

>  <BSK_KF3CT_ICAM1_down>  (27) 
1.0

>  <BSK_KF3CT_ICAM1_up>  (27) 
0.0

>  <BSK_KF3CT_IL1a_down>  (27) 
1.0

>  <BSK_KF3CT_IL1a_up>  (27) 
0.0

>  <BSK_KF3CT_IP10_down>  (27) 
1.0

>  <BSK_KF3CT_IP10_up>  (27) 
0.0

>  <BSK_KF3CT_MCP1_down>  (27) 
1.0

>  <BSK_KF3CT_MCP1_up>  (27) 
0.0

>  <BSK_KF3CT_MMP9_down>  (27) 
1.0

>  <BSK_KF3CT_MMP9_up>  (27) 
0.0

>  <BSK_KF3CT_SRB_down>  (27) 
1.0

>  <BSK_KF3CT_SRB_up>  (27) 
0.0

>  <BSK_KF3CT_TGFb1_down>  (27) 
1.0

>  <BSK_KF3CT_TGFb1_up>  (27) 
0.0

>  <BSK_KF3CT_TIMP2_down>  (27) 
1.0

>  <BSK_KF3CT_TIMP2_up>  (27) 
0.0

>  <BSK_KF3CT_uPA_down>  (27) 
1.0

>  <BSK_KF3CT_uPA_up>  (27) 
0.0

>  <BSK_LPS_CD40_down>  (27) 
1.0

>  <BSK_LPS_CD40_up>  (27) 
0.0

>  <BSK_LPS_Eselectin_down>  (27) 
1.0

>  <BSK_LPS_Eselectin_up>  (27) 
0.0

>  <BSK_LPS_IL1a_down>  (27) 
1.0

>  <BSK_LPS_IL1a_up>  (27) 
0.0

>  <BSK_LPS_IL8_down>  (27) 
1.0

>  <BSK_LPS_IL8_up>  (27) 
0.0

>  <BSK_LPS_MCP1_down>  (27) 
1.0

>  <BSK_LPS_MCP1_up>  (27) 
0.0

>  <BSK_LPS_MCSF_down>  (27) 
1.0

>  <BSK_LPS_MCSF_up>  (27) 
0.0

>  <BSK_LPS_PGE2_down>  (27) 
1.0

>  <BSK_LPS_PGE2_up>  (27) 
0.0

>  <BSK_LPS_SRB_down>  (27) 
1.0

>  <BSK_LPS_SRB_up>  (27) 
0.0

>  <BSK_LPS_TNFa_down>  (27) 
1.0

>  <BSK_LPS_TNFa_up>  (27) 
0.0

>  <BSK_LPS_TissueFactor_down>  (27) 
1.0

>  <BSK_LPS_TissueFactor_up>  (27) 
0.0

>  <BSK_LPS_VCAM1_down>  (27) 
1.0

>  <BSK_LPS_VCAM1_up>  (27) 
0.0

>  <BSK_SAg_CD38_down>  (27) 
1.0

>  <BSK_SAg_CD38_up>  (27) 
0.0

>  <BSK_SAg_CD40_down>  (27) 
1.0

>  <BSK_SAg_CD40_up>  (27) 
0.0

>  <BSK_SAg_CD69_down>  (27) 
1.0

>  <BSK_SAg_CD69_up>  (27) 
0.0

>  <BSK_SAg_Eselectin_down>  (27) 
1.0

>  <BSK_SAg_Eselectin_up>  (27) 
0.0

>  <BSK_SAg_IL8_down>  (27) 
1.0

>  <BSK_SAg_IL8_up>  (27) 
0.0

>  <BSK_SAg_MCP1_down>  (27) 
1.0

>  <BSK_SAg_MCP1_up>  (27) 
0.0

>  <BSK_SAg_MIG_down>  (27) 
1.0

>  <BSK_SAg_MIG_up>  (27) 
0.0

>  <BSK_SAg_PBMCCytotoxicity_down>  (27) 
1.0

>  <BSK_SAg_PBMCCytotoxicity_up>  (27) 
0.0

>  <BSK_SAg_Proliferation_down>  (27) 
1.0

>  <BSK_SAg_Proliferation_up>  (27) 
0.0

>  <BSK_SAg_SRB_down>  (27) 
1.0

>  <BSK_SAg_SRB_up>  (27) 
0.0

>  <BSK_hDFCGF_CollagenIII_down>  (27) 
1.0

>  <BSK_hDFCGF_CollagenIII_up>  (27) 
0.0

>  <BSK_hDFCGF_EGFR_down>  (27) 
0.0

>  <BSK_hDFCGF_EGFR_up>  (27) 
0.0

>  <BSK_hDFCGF_IL8_down>  (27) 
1.0

>  <BSK_hDFCGF_IL8_up>  (27) 
0.0

>  <BSK_hDFCGF_IP10_down>  (27) 
1.0

>  <BSK_hDFCGF_IP10_up>  (27) 
0.0

>  <BSK_hDFCGF_MCSF_down>  (27) 
1.0

>  <BSK_hDFCGF_MCSF_up>  (27) 
0.0

>  <BSK_hDFCGF_MIG_down>  (27) 
1.0

>  <BSK_hDFCGF_MIG_up>  (27) 
0.0

>  <BSK_hDFCGF_MMP1_down>  (27) 
1.0

>  <BSK_hDFCGF_MMP1_up>  (27) 
0.0

>  <BSK_hDFCGF_PAI1_down>  (27) 
1.0

>  <BSK_hDFCGF_PAI1_up>  (27) 
0.0

>  <BSK_hDFCGF_Proliferation_down>  (27) 
1.0

>  <BSK_hDFCGF_Proliferation_up>  (27) 
0.0

>  <BSK_hDFCGF_SRB_down>  (27) 
1.0

>  <BSK_hDFCGF_SRB_up>  (27) 
0.0

>  <BSK_hDFCGF_TIMP1_down>  (27) 
1.0

>  <BSK_hDFCGF_TIMP1_up>  (27) 
0.0

>  <BSK_hDFCGF_VCAM1_down>  (27) 
1.0

>  <BSK_hDFCGF_VCAM1_up>  (27) 
0.0

>  <NCCT_HEK293T_CellTiterGLO>  (27) 
1.0

>  <NCCT_QuantiLum_inhib_2_dn>  (27) 
0.0

>  <NCCT_QuantiLum_inhib_dn>  (27) 
1.0

>  <NCCT_TPO_AUR_dn>  (27) 
1.0

>  <NHEERL_MED_hDIO1_dn>  (27) 
1.0

>  <NHEERL_ZF_144hpf_TERATOSCORE_up>  (27) 
1.0

>  <NVS_ENZ_hBACE>  (27) 
0.0

>  <NVS_ENZ_hBACE_Activator>  (27) 
0.0

>  <NVS_ENZ_hDUSP3>  (27) 
1.0

>  <NVS_ENZ_hDUSP3_Activator>  (27) 
0.0

>  <NVS_ENZ_hEphA1>  (27) 
0.0

>  <NVS_ENZ_hEphA1_Activator>  (27) 
0.0

>  <NVS_ENZ_hMMP9>  (27) 
0.0

>  <NVS_ENZ_hMMP9_Activator>  (27) 
0.0

>  <NVS_ENZ_oCOX1>  (27) 
0.0

>  <NVS_ENZ_oCOX1_Activator>  (27) 
0.0

>  <NVS_GPCR_gOpiateK>  (27) 
0.0

>  <NVS_GPCR_hPY2>  (27) 
0.0

>  <NVS_GPCR_rNK3>  (27) 
0.0

>  <NVS_GPCR_rOpiate_NonSelective>  (27) 
1.0

>  <NVS_GPCR_rTRH>  (27) 
0.0

>  <NVS_IC_rCaChN>  (27) 
0.0

>  <NVS_IC_rCaDHPRCh_L>  (27) 
0.0

>  <NVS_LGIC_h5HT3>  (27) 
0.0

>  <NVS_NR_hCAR_Antagonist>  (27) 
0.0

>  <NVS_NR_hFXR_Antagonist>  (27) 
0.0

>  <NVS_NR_hPPARg>  (27) 
0.0

>  <NVS_NR_hPXR>  (27) 
0.0

>  <NVS_NR_hRARa_Agonist>  (27) 
0.0

>  <NVS_NR_hTRa_Antagonist>  (27) 
0.0

>  <OT_AR_ARSRC1_0480>  (27) 
0.0

>  <OT_AR_ARSRC1_0960>  (27) 
1.0

>  <OT_ER_ERaERa_0480>  (27) 
1.0

>  <OT_ER_ERaERa_1440>  (27) 
1.0

>  <OT_ER_ERaERb_0480>  (27) 
1.0

>  <OT_ER_ERbERb_0480>  (27) 
1.0

>  <OT_ER_ERbERb_1440>  (27) 
1.0

>  <OT_ERa_EREGFP_0480>  (27) 
0.0

>  <TOX21_AP1_BLA_Agonist_ch1>  (27) 
1.0

>  <TOX21_AP1_BLA_Agonist_ch2>  (27) 
0.0

>  <TOX21_AP1_BLA_Agonist_ratio>  (27) 
0.0

>  <TOX21_AP1_BLA_Agonist_viability>  (27) 
1.0

>  <TOX21_ARE_BLA_Agonist_ch1>  (27) 
1.0

>  <TOX21_ARE_BLA_Agonist_ch2>  (27) 
0.0

>  <TOX21_ARE_BLA_agonist_viability>  (27) 
0.0

>  <TOX21_AR_BLA_Agonist_ch1>  (27) 
0.0

>  <TOX21_AR_BLA_Agonist_ch2>  (27) 
0.0

>  <TOX21_AR_BLA_Agonist_ratio>  (27) 
0.0

>  <TOX21_AR_BLA_Antagonist_ch1>  (27) 
0.0

>  <TOX21_AR_BLA_Antagonist_ch2>  (27) 
1.0

>  <TOX21_AR_BLA_Antagonist_ratio>  (27) 
1.0

>  <TOX21_AR_BLA_Antagonist_viability>  (27) 
1.0

>  <TOX21_AR_LUC_MDAKB2_Agonist>  (27) 
0.0

>  <TOX21_AR_LUC_MDAKB2_Agonist_3uM_Nilutamide>  (27) 
0.0

>  <TOX21_AR_LUC_MDAKB2_Agonist_3uM_Nilutamide_viability>  (27) 
0.0

>  <TOX21_AR_LUC_MDAKB2_Antagonist_0.5nM_R1881>  (27) 
0.0

>  <TOX21_AR_LUC_MDAKB2_Antagonist_0.5nM_R1881_viability>  (27) 
0.0

>  <TOX21_AR_LUC_MDAKB2_Antagonist_10nM_R1881>  (27) 
0.0

>  <TOX21_AR_LUC_MDAKB2_Antagonist_10nM_R1881_viability>  (27) 
0.0

>  <TOX21_AhR_LUC_Agonist>  (27) 
0.0

>  <TOX21_Aromatase_Inhibition>  (27) 
1.0

>  <TOX21_Aromatase_Inhibition_viability>  (27) 
1.0

>  <TOX21_AutoFluor_HEK293_Cell_blue>  (27) 
0.0

>  <TOX21_AutoFluor_HEK293_Cell_green>  (27) 
0.0

>  <TOX21_AutoFluor_HEK293_Cell_red>  (27) 
0.0

>  <TOX21_AutoFluor_HEK293_Media_blue>  (27) 
0.0

>  <TOX21_AutoFluor_HEK293_Media_green>  (27) 
0.0

>  <TOX21_AutoFluor_HEK293_Media_red>  (27) 
0.0

>  <TOX21_AutoFluor_HEPG2_Cell_blue>  (27) 
0.0

>  <TOX21_AutoFluor_HEPG2_Cell_green>  (27) 
0.0

>  <TOX21_AutoFluor_HEPG2_Cell_red>  (27) 
0.0

>  <TOX21_AutoFluor_HEPG2_Media_blue>  (27) 
0.0

>  <TOX21_AutoFluor_HEPG2_Media_green>  (27) 
0.0

>  <TOX21_AutoFluor_HEPG2_Media_red>  (27) 
0.0

>  <TOX21_CAR_Agonist>  (27) 
1.0

>  <TOX21_CAR_Antagonist>  (27) 
0.0

>  <TOX21_CAR_Antagonist_viability>  (27) 
1.0

>  <TOX21_CASP3_CHO>  (27) 
0.0

>  <TOX21_CASP3_CHO_viability>  (27) 
1.0

>  <TOX21_CASP3_HEPG2>  (27) 
0.0

>  <TOX21_CASP3_HEPG2_viability>  (27) 
1.0

>  <TOX21_DT40>  (27) 
1.0

>  <TOX21_DT40_100>  (27) 
1.0

>  <TOX21_DT40_657>  (27) 
1.0

>  <TOX21_ELG1_LUC_Agonist>  (27) 
0.0

>  <TOX21_ELG1_LUC_Agonist_viability>  (27) 
1.0

>  <TOX21_ERR_Agonist>  (27) 
0.0

>  <TOX21_ERR_Antagonist>  (27) 
1.0

>  <TOX21_ERa_BLA_Agonist_ch1>  (27) 
0.0

>  <TOX21_ERa_BLA_Agonist_ch2>  (27) 
0.0

>  <TOX21_ERa_BLA_Agonist_ratio>  (27) 
0.0

>  <TOX21_ERa_BLA_Antagonist_ch1>  (27) 
0.0

>  <TOX21_ERa_BLA_Antagonist_ch2>  (27) 
0.0

>  <TOX21_ERa_BLA_Antagonist_ratio>  (27) 
1.0

>  <TOX21_ERa_BLA_Antagonist_viability>  (27) 
0.0

>  <TOX21_ERa_LUC_VM7_Agonist>  (27) 
1.0

>  <TOX21_ERa_LUC_VM7_Agonist_10nM_ICI182780>  (27) 
0.0

>  <TOX21_ERa_LUC_VM7_Agonist_10nM_ICI182780_viability>  (27) 
0.0

>  <TOX21_ERa_LUC_VM7_Antagonist_0.1nM_E2>  (27) 
1.0

>  <TOX21_ERa_LUC_VM7_Antagonist_0.1nM_E2_viability>  (27) 
0.0

>  <TOX21_ERa_LUC_VM7_Antagonist_0.5nM_E2>  (27) 
0.0

>  <TOX21_ERa_LUC_VM7_Antagonist_0.5nM_E2_viability>  (27) 
0.0

>  <TOX21_ERb_BLA_Agonist_ch1>  (27) 
0.0

>  <TOX21_ERb_BLA_Agonist_ch2>  (27) 
0.0

>  <TOX21_ERb_BLA_Agonist_ratio>  (27) 
0.0

>  <TOX21_ERb_BLA_Agonist_viability>  (27) 
1.0

>  <TOX21_ERb_BLA_Antagonist_ch1>  (27) 
1.0

>  <TOX21_ERb_BLA_Antagonist_ch2>  (27) 
1.0

>  <TOX21_ERb_BLA_Antagonist_ratio>  (27) 
1.0

>  <TOX21_ERb_BLA_Antagonist_viability>  (27) 
1.0

>  <TOX21_ESRE_BLA_ch1>  (27) 
0.0

>  <TOX21_ESRE_BLA_ch2>  (27) 
0.0

>  <TOX21_ESRE_BLA_ratio>  (27) 
0.0

>  <TOX21_ESRE_BLA_viability>  (27) 
0.0

>  <TOX21_FXR_BLA_Antagonist_ch1>  (27) 
0.0

>  <TOX21_FXR_BLA_Antagonist_ch2>  (27) 
0.0

>  <TOX21_FXR_BLA_agonist_ch1>  (27) 
0.0

>  <TOX21_FXR_BLA_agonist_ch2>  (27) 
0.0

>  <TOX21_FXR_BLA_agonist_ratio>  (27) 
0.0

>  <TOX21_FXR_BLA_agonist_viability>  (27) 
0.0

>  <TOX21_FXR_BLA_antagonist_ratio>  (27) 
0.0

>  <TOX21_FXR_BLA_antagonist_viability>  (27) 
0.0

>  <TOX21_GR_BLA_Agonist_ch1>  (27) 
0.0

>  <TOX21_GR_BLA_Agonist_ch2>  (27) 
0.0

>  <TOX21_GR_BLA_Agonist_ratio>  (27) 
0.0

>  <TOX21_GR_BLA_Antagonist_ch1>  (27) 
0.0

>  <TOX21_GR_BLA_Antagonist_ch2>  (27) 
1.0

>  <TOX21_GR_BLA_Antagonist_ratio>  (27) 
0.0

>  <TOX21_GR_BLA_Antagonist_viability>  (27) 
1.0

>  <TOX21_H2AX_HTRF_CHO_Agonist_ch1>  (27) 
0.0

>  <TOX21_H2AX_HTRF_CHO_Agonist_ch2>  (27) 
0.0

>  <TOX21_H2AX_HTRF_CHO_Agonist_ratio>  (27) 
1.0

>  <TOX21_H2AX_HTRF_CHO_viability>  (27) 
1.0

>  <TOX21_HDAC_Inhibition>  (27) 
0.0

>  <TOX21_HDAC_Inhibition_viability>  (27) 
0.0

>  <TOX21_HRE_BLA_Agonist_ch1>  (27) 
1.0

>  <TOX21_HRE_BLA_Agonist_ch2>  (27) 
0.0

>  <TOX21_HRE_BLA_Agonist_ratio>  (27) 
1.0

>  <TOX21_HRE_BLA_Agonist_viability>  (27) 
1.0

>  <TOX21_HSE_BLA_agonist_ch1>  (27) 
0.0

>  <TOX21_HSE_BLA_agonist_ch2>  (27) 
0.0

>  <TOX21_HSE_BLA_agonist_ratio>  (27) 
0.0

>  <TOX21_HSE_BLA_agonist_viability>  (27) 
0.0

>  <TOX21_LUC_Biochem>  (27) 
0.0

>  <TOX21_MMP_fitc>  (27) 
1.0

>  <TOX21_MMP_ratio_down>  (27) 
1.0

>  <TOX21_MMP_ratio_up>  (27) 
0.0

>  <TOX21_MMP_rhodamine>  (27) 
1.0

>  <TOX21_MMP_viability>  (27) 
1.0

>  <TOX21_NFkB_BLA_agonist_ch1>  (27) 
1.0

>  <TOX21_NFkB_BLA_agonist_ch2>  (27) 
0.0

>  <TOX21_NFkB_BLA_agonist_ratio>  (27) 
0.0

>  <TOX21_NFkB_BLA_agonist_viability>  (27) 
0.0

>  <TOX21_PGC_ERR_Agonist>  (27) 
0.0

>  <TOX21_PGC_ERR_Antagonist>  (27) 
0.0

>  <TOX21_PGC_ERR_viability>  (27) 
1.0

>  <TOX21_PPARd_BLA_Agonist_viability>  (27) 
1.0

>  <TOX21_PPARd_BLA_Antagonist_ch1>  (27) 
0.0

>  <TOX21_PPARd_BLA_Antagonist_ch2>  (27) 
0.0

>  <TOX21_PPARd_BLA_agonist_ch1>  (27) 
0.0

>  <TOX21_PPARd_BLA_agonist_ch2>  (27) 
0.0

>  <TOX21_PPARd_BLA_agonist_ratio>  (27) 
0.0

>  <TOX21_PPARd_BLA_antagonist_ratio>  (27) 
0.0

>  <TOX21_PPARd_BLA_antagonist_viability>  (27) 
0.0

>  <TOX21_PPARg_BLA_Agonist_ch1>  (27) 
0.0

>  <TOX21_PPARg_BLA_Agonist_ch2>  (27) 
0.0

>  <TOX21_PPARg_BLA_Agonist_ratio>  (27) 
0.0

>  <TOX21_PPARg_BLA_Antagonist_ch1>  (27) 
0.0

>  <TOX21_PPARg_BLA_Antagonist_ch2>  (27) 
0.0

>  <TOX21_PPARg_BLA_antagonist_ratio>  (27) 
0.0

>  <TOX21_PPARg_BLA_antagonist_viability>  (27) 
0.0

>  <TOX21_PR_BLA_Agonist_ch1>  (27) 
0.0

>  <TOX21_PR_BLA_Agonist_ch2>  (27) 
0.0

>  <TOX21_PR_BLA_Agonist_ratio>  (27) 
0.0

>  <TOX21_PR_BLA_Antagonist_ch1>  (27) 
0.0

>  <TOX21_PR_BLA_Antagonist_ch2>  (27) 
1.0

>  <TOX21_PR_BLA_Antagonist_ratio>  (27) 
1.0

>  <TOX21_PR_BLA_Antagonist_viability>  (27) 
0.0

>  <TOX21_PR_BLA_Followup_Agonist_ch1>  (27) 
0.0

>  <TOX21_PR_BLA_Followup_Agonist_ch2>  (27) 
0.0

>  <TOX21_PR_BLA_Followup_Agonist_ratio>  (27) 
0.0

>  <TOX21_PR_BLA_Followup_Agonist_viability>  (27) 
0.0

>  <TOX21_PR_BLA_Followup_Antagonist_ch1>  (27) 
0.0

>  <TOX21_PR_BLA_Followup_Antagonist_ch2>  (27) 
1.0

>  <TOX21_PR_BLA_Followup_Antagonist_ratio>  (27) 
1.0

>  <TOX21_PR_BLA_Followup_Antagonist_viability>  (27) 
0.0

>  <TOX21_PR_LUC_Followup_Agonist>  (27) 
0.0

>  <TOX21_PR_LUC_Followup_Agonist_viability>  (27) 
0.0

>  <TOX21_PR_LUC_Followup_Antagonist>  (27) 
0.0

>  <TOX21_PR_LUC_Followup_Antagonist_viability>  (27) 
0.0

>  <TOX21_PXR_Agonist>  (27) 
0.0

>  <TOX21_PXR_viability>  (27) 
1.0

>  <TOX21_RAR_LUC_Agonist>  (27) 
0.0

>  <TOX21_RAR_LUC_Agonist_viability>  (27) 
0.0

>  <TOX21_RAR_LUC_Antagonist_viability>  (27) 
0.0

>  <TOX21_RORg_LUC_CHO_Antagonist>  (27) 
1.0

>  <TOX21_RORg_LUC_CHO_Antagonist_viability>  (27) 
1.0

>  <TOX21_RT_HEK293_FLO_00hr_viability>  (27) 
0.0

>  <TOX21_RT_HEK293_FLO_08hr_viability>  (27) 
1.0

>  <TOX21_RT_HEK293_FLO_16hr_viability>  (27) 
1.0

>  <TOX21_RT_HEK293_FLO_24hr_viability>  (27) 
1.0

>  <TOX21_RT_HEK293_FLO_32hr_viability>  (27) 
1.0

>  <TOX21_RT_HEK293_FLO_40hr_viability>  (27) 
1.0

>  <TOX21_RT_HEK293_GLO_00hr_viability>  (27) 
0.0

>  <TOX21_RT_HEK293_GLO_08hr_viability>  (27) 
1.0

>  <TOX21_RT_HEK293_GLO_16hr_viability>  (27) 
1.0

>  <TOX21_RT_HEK293_GLO_24hr_viability>  (27) 
1.0

>  <TOX21_RT_HEK293_GLO_32hr_viability>  (27) 
1.0

>  <TOX21_RT_HEK293_GLO_40hr_viability>  (27) 
1.0

>  <TOX21_RT_HEPG2_FLO_00hr_ctrl_viability>  (27) 
0.0

>  <TOX21_RT_HEPG2_FLO_08hr_viability>  (27) 
1.0

>  <TOX21_RT_HEPG2_FLO_16hr_ctrl_viability>  (27) 
1.0

>  <TOX21_RT_HEPG2_FLO_24hr_viability>  (27) 
1.0

>  <TOX21_RT_HEPG2_FLO_32hr_ctrl_viability>  (27) 
1.0

>  <TOX21_RT_HEPG2_GLO_00hr_ctrl_viability>  (27) 
0.0

>  <TOX21_RT_HEPG2_GLO_08hr_ctrl_viability>  (27) 
0.0

>  <TOX21_RT_HEPG2_GLO_16hr_ctrl_viability>  (27) 
0.0

>  <TOX21_RT_HEPG2_GLO_24hr_ctrl_viability>  (27) 
0.0

>  <TOX21_RT_HEPG2_GLO_32hr_ctrl_viability>  (27) 
0.0

>  <TOX21_RT_HEPG2_GLO_40hr_viability>  (27) 
0.0

>  <TOX21_RXR_BLA_Agonist_ch1>  (27) 
0.0

>  <TOX21_RXR_BLA_Agonist_ch2>  (27) 
0.0

>  <TOX21_RXR_BLA_Agonist_ratio>  (27) 
0.0

>  <TOX21_RXR_BLA_Agonist_viability>  (27) 
1.0

>  <TOX21_SBE_BLA_Agonist_ch1>  (27) 
0.0

>  <TOX21_SBE_BLA_Agonist_ch2>  (27) 
0.0

>  <TOX21_SBE_BLA_Agonist_ratio>  (27) 
0.0

>  <TOX21_SBE_BLA_Agonist_viability>  (27) 
0.0

>  <TOX21_SBE_BLA_Antagonist_ch1>  (27) 
0.0

>  <TOX21_SBE_BLA_Antagonist_ch2>  (27) 
1.0

>  <TOX21_SBE_BLA_Antagonist_ratio>  (27) 
0.0

>  <TOX21_SBE_BLA_Antagonist_viability>  (27) 
0.0

>  <TOX21_SSH_3T3_GLI3_Agonist>  (27) 
0.0

>  <TOX21_SSH_3T3_GLI3_Agonist_viability>  (27) 
1.0

>  <TOX21_SSH_3T3_GLI3_Antagonist>  (27) 
1.0

>  <TOX21_SSH_3T3_GLI3_Antagonist_viability>  (27) 
1.0

>  <TOX21_TRHR_HEK293_Agonist>  (27) 
0.0

>  <TOX21_TRHR_HEK293_Antagonist>  (27) 
0.0

>  <TOX21_TR_LUC_GH3_Agonist>  (27) 
0.0

>  <TOX21_TR_LUC_GH3_Antagonist>  (27) 
1.0

>  <TOX21_TR_LUC_GH3_Antagonist_viability>  (27) 
1.0

>  <TOX21_TSHR_Agonist_ch2>  (27) 
0.0

>  <TOX21_TSHR_Antagonist_ch2>  (27) 
0.0

>  <TOX21_TSHR_Antagonist_ratio>  (27) 
0.0

>  <TOX21_TSHR_HTRF_Agonist_ch1>  (27) 
0.0

>  <TOX21_TSHR_HTRF_Antagonist_ch1>  (27) 
0.0

>  <TOX21_TSHR_wt_HTRF_ch1>  (27) 
0.0

>  <TOX21_TSHR_wt_ch2>  (27) 
0.0

>  <TOX21_TSHR_wt_ratio>  (27) 
0.0

>  <TOX21_VDR_BLA_Agonist_viability>  (27) 
1.0

>  <TOX21_VDR_BLA_Antagonist_ch1>  (27) 
0.0

>  <TOX21_VDR_BLA_Antagonist_ch2>  (27) 
0.0

>  <TOX21_VDR_BLA_agonist_ch1>  (27) 
0.0

>  <TOX21_VDR_BLA_agonist_ch2>  (27) 
0.0

>  <TOX21_VDR_BLA_agonist_ratio>  (27) 
0.0

>  <TOX21_VDR_BLA_antagonist_ratio>  (27) 
0.0

>  <TOX21_VDR_BLA_antagonist_viability>  (27) 
0.0

>  <TOX21_p53_BLA_p1_ch1>  (27) 
0.0

>  <TOX21_p53_BLA_p1_ch2>  (27) 
0.0

>  <TOX21_p53_BLA_p1_ratio>  (27) 
0.0

>  <TOX21_p53_BLA_p1_viability>  (27) 
0.0

>  <TOX21_p53_BLA_p2_ch1>  (27) 
0.0

>  <TOX21_p53_BLA_p2_ch2>  (27) 
0.0

>  <TOX21_p53_BLA_p2_ratio>  (27) 
0.0

>  <TOX21_p53_BLA_p2_viability>  (27) 
0.0

>  <TOX21_p53_BLA_p3_ch1>  (27) 
0.0

>  <TOX21_p53_BLA_p3_ch2>  (27) 
0.0

>  <TOX21_p53_BLA_p3_ratio>  (27) 
0.0

>  <TOX21_p53_BLA_p4_ch1>  (27) 
0.0

>  <TOX21_p53_BLA_p4_ch2>  (27) 
0.0

>  <TOX21_p53_BLA_p4_ratio>  (27) 
0.0

>  <TOX21_p53_BLA_p4_viability>  (27) 
0.0

>  <TOX21_p53_BLA_p5_ch1>  (27) 
1.0

>  <TOX21_p53_BLA_p5_ch2>  (27) 
0.0

>  <TOX21_p53_BLA_p5_ratio>  (27) 
0.0

>  <TOX21_p53_BLA_p5_viability>  (27) 
0.0

>  <Tanguay_ZF_120hpf_AXIS_up>  (27) 
0.0

>  <Tanguay_ZF_120hpf_ActivityScore>  (27) 
0.0

>  <Tanguay_ZF_120hpf_BRAI_up>  (27) 
0.0

>  <Tanguay_ZF_120hpf_CFIN_up>  (27) 
0.0

>  <Tanguay_ZF_120hpf_CIRC_up>  (27) 
0.0

>  <Tanguay_ZF_120hpf_EYE_up>  (27) 
0.0

>  <Tanguay_ZF_120hpf_JAW_up>  (27) 
0.0

>  <Tanguay_ZF_120hpf_MORT_up>  (27) 
0.0

>  <Tanguay_ZF_120hpf_NC_up>  (27) 
0.0

>  <Tanguay_ZF_120hpf_OTIC_up>  (27) 
0.0

>  <Tanguay_ZF_120hpf_PE_up>  (27) 
0.0

>  <Tanguay_ZF_120hpf_PFIN_up>  (27) 
0.0

>  <Tanguay_ZF_120hpf_PIG_up>  (27) 
0.0

>  <Tanguay_ZF_120hpf_SNOU_up>  (27) 
0.0

>  <Tanguay_ZF_120hpf_SOMI_up>  (27) 
0.0

>  <Tanguay_ZF_120hpf_SWIM_up>  (27) 
0.0

>  <Tanguay_ZF_120hpf_TRUN_up>  (27) 
0.0

>  <Tanguay_ZF_120hpf_TR_up>  (27) 
0.0

>  <Tanguay_ZF_120hpf_YSE_up>  (27) 
0.0

>  <UPITT_HCI_U2OS_AR_TIF2_Nucleoli_Agonist>  (27) 
0.0

>  <UPITT_HCI_U2OS_AR_TIF2_Nucleoli_Antagonist>  (27) 
1.0

>  <UPITT_HCI_U2OS_AR_TIF2_Nucleoli_Cytoplasm_Ratio_Agonist>  (27) 
0.0

>  <UPITT_HCI_U2OS_AR_TIF2_Nucleoli_Cytoplasm_Ratio_Antagonist>  (27) 
0.0

>  <NVS_NR_mERa>  (27) 
0.0

$$$$

     RDKit          3D

 16 16  0  0  0  0  0  0  0  0999 V2000
    0.0000    0.0000    0.0000 C   0  0  0  0  0  0  0  0  0  0  0  0
    0.0000    0.0000    0.0000 Si  0  0  0  0  0  4  0  0  0  0  0  0
    0.0000    0.0000    0.0000 O   0  0  0  0  0  0  0  0  0  0  0  0
    0.0000    0.0000    0.0000 Si  0  0  0  0  0  4  0  0  0  0  0  0
    0.0000    0.0000    0.0000 O   0  0  0  0  0  0  0  0  0  0  0  0
    0.0000    0.0000    0.0000 Si  0  0  0  0  0  4  0  0  0  0  0  0
    0.0000    0.0000    0.0000 O   0  0  0  0  0  0  0  0  0  0  0  0
    0.0000    0.0000    0.0000 Si  0  0  0  0  0  4  0  0  0  0  0  0
    0.0000    0.0000    0.0000 O   0  0  0  0  0  0  0  0  0  0  0  0
    0.0000    0.0000    0.0000 C   0  0  0  0  0  0  0  0  0  0  0  0
    0.0000    0.0000    0.0000 C   0  0  0  0  0  0  0  0  0  0  0  0
    0.0000    0.0000    0.0000 C   0  0  0  0  0  0  0  0  0  0  0  0
    0.0000    0.0000    0.0000 C   0  0  0  0  0  0  0  0  0  0  0  0
    0.0000    0.0000    0.0000 C   0  0  0  0  0  0  0  0  0  0  0  0
    0.0000    0.0000    0.0000 C   0  0  0  0  0  0  0  0  0  0  0  0
    0.0000    0.0000    0.0000 C   0  0  0  0  0  0  0  0  0  0  0  0
  1  2  1  0
  2  3  1  0
  3  4  1  0
  4  5  1  0
  5  6  1  0
  6  7  1  0
  7  8  1  0
  8  9  1  0
  8 10  1  0
  8 11  1  0
  6 12  1  0
  6 13  1  0
  4 14  1  0
  4 15  1  0
  2 16  1  0
  9  2  1  0
M  END
>  <CASRN>  (28) 
556-67-2

>  <Name>  (28) 
Octamethylcyclotetrasiloxane

>  <Active>  (28) 
3

>  <Inactive>  (28) 
0

>  <Bioactivity>  (28) 
Active

>  <Min LEL>  (28) 
250.0

>  <Max HDT>  (28) 
nan

>  <Class>  (28) 
1

>  <Code>  (28) 
C556672

>  <NVS_NR_hER>  (28) 
0.0

>  <OT_ER_ERaERb_1440>  (28) 
0.0

>  <OT_FXR_FXRSRC1_0480>  (28) 
0.0

>  <OT_PPARg_PPARgSRC1_1440>  (28) 
0.0

>  <OT_FXR_FXRSRC1_1440>  (28) 
0.0

>  <OT_NURR1_NURR1RXRa_0480>  (28) 
0.0

>  <OT_NURR1_NURR1RXRa_1440>  (28) 
0.0

>  <OT_PPARg_PPARgSRC1_0480>  (28) 
0.0

>  <OT_AR_ARELUC_AG_1440>  (28) 
0.0

>  <OT_ERa_EREGFP_0120>  (28) 
0.0

>  <BSK_3C_HLADR_down>  (28) 
0.0

>  <BSK_3C_Vis_down>  (28) 
0.0

>  <BSK_3C_uPAR_down>  (28) 
0.0

>  <ATG_CAR_TRANS_up>  (28) 
0.0

>  <ATG_E2F_CIS_dn>  (28) 
0.0

>  <ATG_EGR_CIS_up>  (28) 
0.0

>  <ATG_ERa_TRANS_dn>  (28) 
0.0

>  <ATG_ERa_TRANS_up>  (28) 
1.0

>  <ATG_FXR_TRANS_dn>  (28) 
0.0

>  <ATG_GLI_CIS_dn>  (28) 
0.0

>  <ATG_GRE_CIS_up>  (28) 
0.0

>  <ATG_LXRa_TRANS_dn>  (28) 
1.0

>  <ATG_LXRa_TRANS_up>  (28) 
0.0

>  <ATG_NRF1_CIS_up>  (28) 
0.0

>  <ATG_NURR1_TRANS_up>  (28) 
0.0

>  <ATG_Sox_CIS_dn>  (28) 
0.0

>  <ATG_Sox_CIS_up>  (28) 
0.0

>  <ATG_Sp1_CIS_up>  (28) 
0.0

>  <ATG_TGFb_CIS_up>  (28) 
0.0

>  <TOX21_ARE_BLA_agonist_ratio>  (28) 
0.0

>  <TOX21_RAR_LUC_Antagonist>  (28) 
0.0

>  <ATG_LXRb_TRANS_dn>  (28) 
0.0

>  <ATG_CAR_TRANS_dn>  (28) 
0.0

>  <ATG_BRE_CIS_dn>  (28) 
0.0

>  <ATG_E2F_CIS_up>  (28) 
0.0

>  <TOX21_TSHR_Agonist_ratio>  (28) 
0.0

>  <ACEA_ER_80hr>  (28) 
0.0

>  <TOX21_CAR_Agonist_viabillity>  (28) 
0.0

>  <TOX21_PR_BLA_Agonist_viability>  (28) 
0.0

>  <TOX21_RT_HEPG2_FLO_40hr_ctrl_viability>  (28) 
0.0

>  <TOX21_AhR_LUC_Agonist_viability>  (28) 
0.0

>  <TOX21_ERR_viability>  (28) 
0.0

>  <TOX21_p53_BLA_p3_viability>  (28) 
0.0

>  <NVS_NR_cAR>  (28) 
1.0

>  <NVS_NR_hPR>  (28) 
0.0

>  <NVS_NR_rAR>  (28) 
0.0

>  <NVS_NR_hGR>  (28) 
0.0

>  <NVS_NR_hAR>  (28) 
1.0

>  <NVS_NR_bER>  (28) 
0.0

>  <ACEA_AR_agonist_80hr>  (28) 
0.0

>  <ACEA_AR_agonist_AUC_viability>  (28) 
0.0

>  <ACEA_AR_antagonist_80hr>  (28) 
0.0

>  <ACEA_AR_antagonist_AUC_viability>  (28) 
0.0

>  <ACEA_ER_AUC_viability>  (28) 
0.0

>  <APR_HepG2_CellCycleArrest_24h_dn>  (28) 
0.0

>  <APR_HepG2_CellCycleArrest_24h_up>  (28) 
0.0

>  <APR_HepG2_CellCycleArrest_72h_dn>  (28) 
0.0

>  <APR_HepG2_CellCycleArrest_72h_up>  (28) 
0.0

>  <APR_HepG2_CellLoss_24h_dn>  (28) 
0.0

>  <APR_HepG2_CellLoss_24h_up>  (28) 
0.0

>  <APR_HepG2_CellLoss_72h_dn>  (28) 
0.0

>  <APR_HepG2_CellLoss_72h_up>  (28) 
0.0

>  <APR_HepG2_MicrotubuleCSK_24h_dn>  (28) 
0.0

>  <APR_HepG2_MicrotubuleCSK_24h_up>  (28) 
0.0

>  <APR_HepG2_MicrotubuleCSK_72h_dn>  (28) 
0.0

>  <APR_HepG2_MicrotubuleCSK_72h_up>  (28) 
0.0

>  <APR_HepG2_MitoMass_24h_dn>  (28) 
0.0

>  <APR_HepG2_MitoMass_24h_up>  (28) 
0.0

>  <APR_HepG2_MitoMass_72h_dn>  (28) 
0.0

>  <APR_HepG2_MitoMass_72h_up>  (28) 
0.0

>  <APR_HepG2_MitoMembPot_24h_dn>  (28) 
0.0

>  <APR_HepG2_MitoMembPot_24h_up>  (28) 
0.0

>  <APR_HepG2_MitoMembPot_72h_dn>  (28) 
0.0

>  <APR_HepG2_MitoMembPot_72h_up>  (28) 
0.0

>  <APR_HepG2_MitoticArrest_24h_dn>  (28) 
0.0

>  <APR_HepG2_MitoticArrest_24h_up>  (28) 
0.0

>  <APR_HepG2_MitoticArrest_72h_dn>  (28) 
0.0

>  <APR_HepG2_MitoticArrest_72h_up>  (28) 
0.0

>  <APR_HepG2_NuclearSize_24h_dn>  (28) 
0.0

>  <APR_HepG2_NuclearSize_24h_up>  (28) 
0.0

>  <APR_HepG2_NuclearSize_72h_dn>  (28) 
0.0

>  <APR_HepG2_NuclearSize_72h_up>  (28) 
0.0

>  <APR_HepG2_OxidativeStress_24h_dn>  (28) 
0.0

>  <APR_HepG2_OxidativeStress_24h_up>  (28) 
0.0

>  <APR_HepG2_OxidativeStress_72h_dn>  (28) 
0.0

>  <APR_HepG2_OxidativeStress_72h_up>  (28) 
0.0

>  <APR_HepG2_StressKinase_24h_dn>  (28) 
0.0

>  <APR_HepG2_StressKinase_24h_up>  (28) 
0.0

>  <APR_HepG2_StressKinase_72h_dn>  (28) 
0.0

>  <APR_HepG2_StressKinase_72h_up>  (28) 
0.0

>  <APR_HepG2_p53Act_24h_dn>  (28) 
0.0

>  <APR_HepG2_p53Act_24h_up>  (28) 
0.0

>  <APR_HepG2_p53Act_72h_dn>  (28) 
0.0

>  <APR_HepG2_p53Act_72h_up>  (28) 
0.0

>  <ATG_AP_1_CIS_dn>  (28) 
0.0

>  <ATG_AP_1_CIS_up>  (28) 
0.0

>  <ATG_AP_2_CIS_dn>  (28) 
0.0

>  <ATG_AP_2_CIS_up>  (28) 
0.0

>  <ATG_AR_TRANS_dn>  (28) 
0.0

>  <ATG_AR_TRANS_up>  (28) 
0.0

>  <ATG_Ahr_CIS_dn>  (28) 
0.0

>  <ATG_Ahr_CIS_up>  (28) 
0.0

>  <ATG_BRE_CIS_up>  (28) 
0.0

>  <ATG_CMV_CIS_dn>  (28) 
0.0

>  <ATG_CMV_CIS_up>  (28) 
1.0

>  <ATG_CRE_CIS_dn>  (28) 
0.0

>  <ATG_CRE_CIS_up>  (28) 
0.0

>  <ATG_C_EBP_CIS_dn>  (28) 
0.0

>  <ATG_C_EBP_CIS_up>  (28) 
0.0

>  <ATG_DR4_LXR_CIS_dn>  (28) 
1.0

>  <ATG_DR4_LXR_CIS_up>  (28) 
0.0

>  <ATG_DR5_CIS_dn>  (28) 
0.0

>  <ATG_DR5_CIS_up>  (28) 
0.0

>  <ATG_EGR_CIS_dn>  (28) 
0.0

>  <ATG_ERE_CIS_dn>  (28) 
0.0

>  <ATG_ERE_CIS_up>  (28) 
1.0

>  <ATG_ERRa_TRANS_dn>  (28) 
0.0

>  <ATG_ERRa_TRANS_up>  (28) 
0.0

>  <ATG_ERRg_TRANS_dn>  (28) 
0.0

>  <ATG_ERRg_TRANS_up>  (28) 
0.0

>  <ATG_E_Box_CIS_dn>  (28) 
0.0

>  <ATG_E_Box_CIS_up>  (28) 
0.0

>  <ATG_Ets_CIS_dn>  (28) 
0.0

>  <ATG_Ets_CIS_up>  (28) 
0.0

>  <ATG_FXR_TRANS_up>  (28) 
0.0

>  <ATG_FoxA2_CIS_dn>  (28) 
0.0

>  <ATG_FoxA2_CIS_up>  (28) 
0.0

>  <ATG_FoxO_CIS_dn>  (28) 
0.0

>  <ATG_FoxO_CIS_up>  (28) 
0.0

>  <ATG_GAL4_TRANS_dn>  (28) 
0.0

>  <ATG_GAL4_TRANS_up>  (28) 
0.0

>  <ATG_GATA_CIS_dn>  (28) 
0.0

>  <ATG_GATA_CIS_up>  (28) 
0.0

>  <ATG_GLI_CIS_up>  (28) 
0.0

>  <ATG_GRE_CIS_dn>  (28) 
0.0

>  <ATG_GR_TRANS_dn>  (28) 
0.0

>  <ATG_GR_TRANS_up>  (28) 
0.0

>  <ATG_HIF1a_CIS_dn>  (28) 
0.0

>  <ATG_HIF1a_CIS_up>  (28) 
0.0

>  <ATG_HNF4a_TRANS_dn>  (28) 
0.0

>  <ATG_HNF4a_TRANS_up>  (28) 
0.0

>  <ATG_HNF6_CIS_dn>  (28) 
0.0

>  <ATG_HNF6_CIS_up>  (28) 
0.0

>  <ATG_HSE_CIS_dn>  (28) 
0.0

>  <ATG_HSE_CIS_up>  (28) 
0.0

>  <ATG_IR1_CIS_dn>  (28) 
1.0

>  <ATG_IR1_CIS_up>  (28) 
0.0

>  <ATG_ISRE_CIS_dn>  (28) 
0.0

>  <ATG_ISRE_CIS_up>  (28) 
0.0

>  <ATG_LXRb_TRANS_up>  (28) 
0.0

>  <ATG_MRE_CIS_dn>  (28) 
0.0

>  <ATG_MRE_CIS_up>  (28) 
0.0

>  <ATG_M_06_CIS_dn>  (28) 
0.0

>  <ATG_M_06_CIS_up>  (28) 
0.0

>  <ATG_M_06_TRANS_dn>  (28) 
0.0

>  <ATG_M_06_TRANS_up>  (28) 
0.0

>  <ATG_M_19_CIS_dn>  (28) 
0.0

>  <ATG_M_19_CIS_up>  (28) 
0.0

>  <ATG_M_19_TRANS_dn>  (28) 
1.0

>  <ATG_M_19_TRANS_up>  (28) 
0.0

>  <ATG_M_32_CIS_dn>  (28) 
0.0

>  <ATG_M_32_CIS_up>  (28) 
0.0

>  <ATG_M_32_TRANS_dn>  (28) 
0.0

>  <ATG_M_32_TRANS_up>  (28) 
0.0

>  <ATG_M_61_CIS_dn>  (28) 
0.0

>  <ATG_M_61_CIS_up>  (28) 
0.0

>  <ATG_M_61_TRANS_dn>  (28) 
0.0

>  <ATG_M_61_TRANS_up>  (28) 
0.0

>  <ATG_Myb_CIS_dn>  (28) 
0.0

>  <ATG_Myb_CIS_up>  (28) 
0.0

>  <ATG_Myc_CIS_dn>  (28) 
0.0

>  <ATG_Myc_CIS_up>  (28) 
0.0

>  <ATG_NFI_CIS_dn>  (28) 
0.0

>  <ATG_NFI_CIS_up>  (28) 
0.0

>  <ATG_NF_kB_CIS_dn>  (28) 
0.0

>  <ATG_NF_kB_CIS_up>  (28) 
0.0

>  <ATG_NRF1_CIS_dn>  (28) 
0.0

>  <ATG_NRF2_ARE_CIS_dn>  (28) 
0.0

>  <ATG_NRF2_ARE_CIS_up>  (28) 
0.0

>  <ATG_NURR1_TRANS_dn>  (28) 
1.0

>  <ATG_Oct_MLP_CIS_dn>  (28) 
0.0

>  <ATG_Oct_MLP_CIS_up>  (28) 
0.0

>  <ATG_PBREM_CIS_dn>  (28) 
0.0

>  <ATG_PBREM_CIS_up>  (28) 
0.0

>  <ATG_PPARa_TRANS_dn>  (28) 
0.0

>  <ATG_PPARa_TRANS_up>  (28) 
0.0

>  <ATG_PPARd_TRANS_dn>  (28) 
0.0

>  <ATG_PPARd_TRANS_up>  (28) 
0.0

>  <ATG_PPARg_TRANS_dn>  (28) 
0.0

>  <ATG_PPARg_TRANS_up>  (28) 
0.0

>  <ATG_PPRE_CIS_dn>  (28) 
0.0

>  <ATG_PPRE_CIS_up>  (28) 
0.0

>  <ATG_PXRE_CIS_dn>  (28) 
0.0

>  <ATG_PXRE_CIS_up>  (28) 
1.0

>  <ATG_PXR_TRANS_dn>  (28) 
0.0

>  <ATG_PXR_TRANS_up>  (28) 
1.0

>  <ATG_Pax6_CIS_dn>  (28) 
0.0

>  <ATG_Pax6_CIS_up>  (28) 
0.0

>  <ATG_RARa_TRANS_dn>  (28) 
0.0

>  <ATG_RARa_TRANS_up>  (28) 
0.0

>  <ATG_RARb_TRANS_dn>  (28) 
0.0

>  <ATG_RARb_TRANS_up>  (28) 
0.0

>  <ATG_RARg_TRANS_dn>  (28) 
0.0

>  <ATG_RARg_TRANS_up>  (28) 
0.0

>  <ATG_RORE_CIS_dn>  (28) 
0.0

>  <ATG_RORE_CIS_up>  (28) 
0.0

>  <ATG_RORb_TRANS_dn>  (28) 
0.0

>  <ATG_RORb_TRANS_up>  (28) 
0.0

>  <ATG_RORg_TRANS_dn>  (28) 
0.0

>  <ATG_RORg_TRANS_up>  (28) 
0.0

>  <ATG_RXRa_TRANS_dn>  (28) 
0.0

>  <ATG_RXRa_TRANS_up>  (28) 
0.0

>  <ATG_RXRb_TRANS_dn>  (28) 
0.0

>  <ATG_RXRb_TRANS_up>  (28) 
1.0

>  <ATG_SREBP_CIS_dn>  (28) 
0.0

>  <ATG_SREBP_CIS_up>  (28) 
0.0

>  <ATG_STAT3_CIS_dn>  (28) 
0.0

>  <ATG_STAT3_CIS_up>  (28) 
0.0

>  <ATG_Sp1_CIS_dn>  (28) 
0.0

>  <ATG_TAL_CIS_dn>  (28) 
0.0

>  <ATG_TAL_CIS_up>  (28) 
0.0

>  <ATG_TA_CIS_dn>  (28) 
0.0

>  <ATG_TA_CIS_up>  (28) 
0.0

>  <ATG_TCF_b_cat_CIS_dn>  (28) 
0.0

>  <ATG_TCF_b_cat_CIS_up>  (28) 
0.0

>  <ATG_TGFb_CIS_dn>  (28) 
0.0

>  <ATG_THRa1_TRANS_dn>  (28) 
0.0

>  <ATG_THRa1_TRANS_up>  (28) 
0.0

>  <ATG_VDRE_CIS_dn>  (28) 
0.0

>  <ATG_VDRE_CIS_up>  (28) 
0.0

>  <ATG_VDR_TRANS_dn>  (28) 
0.0

>  <ATG_VDR_TRANS_up>  (28) 
0.0

>  <ATG_XTT_Cytotoxicity_up>  (28) 
0.0

>  <ATG_Xbp1_CIS_dn>  (28) 
0.0

>  <ATG_Xbp1_CIS_up>  (28) 
0.0

>  <ATG_p53_CIS_dn>  (28) 
0.0

>  <ATG_p53_CIS_up>  (28) 
0.0

>  <BSK_3C_Eselectin_down>  (28) 
0.0

>  <BSK_3C_Eselectin_up>  (28) 
0.0

>  <BSK_3C_HLADR_up>  (28) 
0.0

>  <BSK_3C_ICAM1_down>  (28) 
0.0

>  <BSK_3C_ICAM1_up>  (28) 
0.0

>  <BSK_3C_IL8_down>  (28) 
0.0

>  <BSK_3C_IL8_up>  (28) 
0.0

>  <BSK_3C_MCP1_down>  (28) 
0.0

>  <BSK_3C_MCP1_up>  (28) 
0.0

>  <BSK_3C_MIG_down>  (28) 
0.0

>  <BSK_3C_MIG_up>  (28) 
0.0

>  <BSK_3C_Proliferation_down>  (28) 
0.0

>  <BSK_3C_Proliferation_up>  (28) 
0.0

>  <BSK_3C_SRB_down>  (28) 
0.0

>  <BSK_3C_SRB_up>  (28) 
0.0

>  <BSK_3C_Thrombomodulin_down>  (28) 
0.0

>  <BSK_3C_Thrombomodulin_up>  (28) 
0.0

>  <BSK_3C_TissueFactor_down>  (28) 
0.0

>  <BSK_3C_TissueFactor_up>  (28) 
0.0

>  <BSK_3C_VCAM1_down>  (28) 
0.0

>  <BSK_3C_VCAM1_up>  (28) 
0.0

>  <BSK_3C_Vis_up>  (28) 
0.0

>  <BSK_3C_uPAR_up>  (28) 
0.0

>  <BSK_4H_Eotaxin3_down>  (28) 
0.0

>  <BSK_4H_Eotaxin3_up>  (28) 
0.0

>  <BSK_4H_MCP1_down>  (28) 
0.0

>  <BSK_4H_MCP1_up>  (28) 
0.0

>  <BSK_4H_Pselectin_down>  (28) 
0.0

>  <BSK_4H_Pselectin_up>  (28) 
0.0

>  <BSK_4H_SRB_down>  (28) 
0.0

>  <BSK_4H_SRB_up>  (28) 
0.0

>  <BSK_4H_VCAM1_down>  (28) 
0.0

>  <BSK_4H_VCAM1_up>  (28) 
0.0

>  <BSK_4H_VEGFRII_down>  (28) 
1.0

>  <BSK_4H_VEGFRII_up>  (28) 
0.0

>  <BSK_4H_uPAR_down>  (28) 
0.0

>  <BSK_4H_uPAR_up>  (28) 
0.0

>  <BSK_BE3C_HLADR_down>  (28) 
0.0

>  <BSK_BE3C_HLADR_up>  (28) 
0.0

>  <BSK_BE3C_IL1a_down>  (28) 
0.0

>  <BSK_BE3C_IL1a_up>  (28) 
0.0

>  <BSK_BE3C_IP10_down>  (28) 
0.0

>  <BSK_BE3C_IP10_up>  (28) 
0.0

>  <BSK_BE3C_MIG_down>  (28) 
0.0

>  <BSK_BE3C_MIG_up>  (28) 
0.0

>  <BSK_BE3C_MMP1_down>  (28) 
0.0

>  <BSK_BE3C_MMP1_up>  (28) 
0.0

>  <BSK_BE3C_PAI1_down>  (28) 
0.0

>  <BSK_BE3C_PAI1_up>  (28) 
0.0

>  <BSK_BE3C_SRB_down>  (28) 
0.0

>  <BSK_BE3C_SRB_up>  (28) 
0.0

>  <BSK_BE3C_TGFb1_down>  (28) 
0.0

>  <BSK_BE3C_TGFb1_up>  (28) 
0.0

>  <BSK_BE3C_tPA_down>  (28) 
0.0

>  <BSK_BE3C_tPA_up>  (28) 
0.0

>  <BSK_BE3C_uPAR_down>  (28) 
0.0

>  <BSK_BE3C_uPAR_up>  (28) 
0.0

>  <BSK_BE3C_uPA_down>  (28) 
0.0

>  <BSK_BE3C_uPA_up>  (28) 
0.0

>  <BSK_CASM3C_HLADR_down>  (28) 
0.0

>  <BSK_CASM3C_HLADR_up>  (28) 
0.0

>  <BSK_CASM3C_IL6_down>  (28) 
0.0

>  <BSK_CASM3C_IL6_up>  (28) 
0.0

>  <BSK_CASM3C_IL8_down>  (28) 
0.0

>  <BSK_CASM3C_IL8_up>  (28) 
0.0

>  <BSK_CASM3C_LDLR_down>  (28) 
0.0

>  <BSK_CASM3C_LDLR_up>  (28) 
0.0

>  <BSK_CASM3C_MCP1_down>  (28) 
0.0

>  <BSK_CASM3C_MCP1_up>  (28) 
0.0

>  <BSK_CASM3C_MCSF_down>  (28) 
0.0

>  <BSK_CASM3C_MCSF_up>  (28) 
0.0

>  <BSK_CASM3C_MIG_down>  (28) 
0.0

>  <BSK_CASM3C_MIG_up>  (28) 
0.0

>  <BSK_CASM3C_Proliferation_down>  (28) 
0.0

>  <BSK_CASM3C_Proliferation_up>  (28) 
0.0

>  <BSK_CASM3C_SAA_down>  (28) 
0.0

>  <BSK_CASM3C_SAA_up>  (28) 
0.0

>  <BSK_CASM3C_SRB_down>  (28) 
0.0

>  <BSK_CASM3C_SRB_up>  (28) 
0.0

>  <BSK_CASM3C_Thrombomodulin_down>  (28) 
0.0

>  <BSK_CASM3C_Thrombomodulin_up>  (28) 
0.0

>  <BSK_CASM3C_TissueFactor_down>  (28) 
0.0

>  <BSK_CASM3C_TissueFactor_up>  (28) 
0.0

>  <BSK_CASM3C_VCAM1_down>  (28) 
0.0

>  <BSK_CASM3C_VCAM1_up>  (28) 
0.0

>  <BSK_CASM3C_uPAR_down>  (28) 
0.0

>  <BSK_CASM3C_uPAR_up>  (28) 
0.0

>  <BSK_KF3CT_ICAM1_down>  (28) 
0.0

>  <BSK_KF3CT_ICAM1_up>  (28) 
0.0

>  <BSK_KF3CT_IL1a_down>  (28) 
0.0

>  <BSK_KF3CT_IL1a_up>  (28) 
0.0

>  <BSK_KF3CT_IP10_down>  (28) 
0.0

>  <BSK_KF3CT_IP10_up>  (28) 
0.0

>  <BSK_KF3CT_MCP1_down>  (28) 
0.0

>  <BSK_KF3CT_MCP1_up>  (28) 
0.0

>  <BSK_KF3CT_MMP9_down>  (28) 
0.0

>  <BSK_KF3CT_MMP9_up>  (28) 
0.0

>  <BSK_KF3CT_SRB_down>  (28) 
0.0

>  <BSK_KF3CT_SRB_up>  (28) 
0.0

>  <BSK_KF3CT_TGFb1_down>  (28) 
0.0

>  <BSK_KF3CT_TGFb1_up>  (28) 
0.0

>  <BSK_KF3CT_TIMP2_down>  (28) 
0.0

>  <BSK_KF3CT_TIMP2_up>  (28) 
0.0

>  <BSK_KF3CT_uPA_down>  (28) 
0.0

>  <BSK_KF3CT_uPA_up>  (28) 
0.0

>  <BSK_LPS_CD40_down>  (28) 
0.0

>  <BSK_LPS_CD40_up>  (28) 
0.0

>  <BSK_LPS_Eselectin_down>  (28) 
0.0

>  <BSK_LPS_Eselectin_up>  (28) 
0.0

>  <BSK_LPS_IL1a_down>  (28) 
0.0

>  <BSK_LPS_IL1a_up>  (28) 
0.0

>  <BSK_LPS_IL8_down>  (28) 
0.0

>  <BSK_LPS_IL8_up>  (28) 
0.0

>  <BSK_LPS_MCP1_down>  (28) 
0.0

>  <BSK_LPS_MCP1_up>  (28) 
0.0

>  <BSK_LPS_MCSF_down>  (28) 
0.0

>  <BSK_LPS_MCSF_up>  (28) 
0.0

>  <BSK_LPS_PGE2_down>  (28) 
0.0

>  <BSK_LPS_PGE2_up>  (28) 
0.0

>  <BSK_LPS_SRB_down>  (28) 
0.0

>  <BSK_LPS_SRB_up>  (28) 
0.0

>  <BSK_LPS_TNFa_down>  (28) 
0.0

>  <BSK_LPS_TNFa_up>  (28) 
0.0

>  <BSK_LPS_TissueFactor_down>  (28) 
0.0

>  <BSK_LPS_TissueFactor_up>  (28) 
0.0

>  <BSK_LPS_VCAM1_down>  (28) 
0.0

>  <BSK_LPS_VCAM1_up>  (28) 
0.0

>  <BSK_SAg_CD38_down>  (28) 
0.0

>  <BSK_SAg_CD38_up>  (28) 
0.0

>  <BSK_SAg_CD40_down>  (28) 
0.0

>  <BSK_SAg_CD40_up>  (28) 
0.0

>  <BSK_SAg_CD69_down>  (28) 
0.0

>  <BSK_SAg_CD69_up>  (28) 
0.0

>  <BSK_SAg_Eselectin_down>  (28) 
0.0

>  <BSK_SAg_Eselectin_up>  (28) 
0.0

>  <BSK_SAg_IL8_down>  (28) 
0.0

>  <BSK_SAg_IL8_up>  (28) 
0.0

>  <BSK_SAg_MCP1_down>  (28) 
0.0

>  <BSK_SAg_MCP1_up>  (28) 
0.0

>  <BSK_SAg_MIG_down>  (28) 
0.0

>  <BSK_SAg_MIG_up>  (28) 
0.0

>  <BSK_SAg_PBMCCytotoxicity_down>  (28) 
0.0

>  <BSK_SAg_PBMCCytotoxicity_up>  (28) 
0.0

>  <BSK_SAg_Proliferation_down>  (28) 
0.0

>  <BSK_SAg_Proliferation_up>  (28) 
0.0

>  <BSK_SAg_SRB_down>  (28) 
0.0

>  <BSK_SAg_SRB_up>  (28) 
0.0

>  <BSK_hDFCGF_CollagenIII_down>  (28) 
0.0

>  <BSK_hDFCGF_CollagenIII_up>  (28) 
0.0

>  <BSK_hDFCGF_EGFR_down>  (28) 
0.0

>  <BSK_hDFCGF_EGFR_up>  (28) 
0.0

>  <BSK_hDFCGF_IL8_down>  (28) 
0.0

>  <BSK_hDFCGF_IL8_up>  (28) 
0.0

>  <BSK_hDFCGF_IP10_down>  (28) 
0.0

>  <BSK_hDFCGF_IP10_up>  (28) 
0.0

>  <BSK_hDFCGF_MCSF_down>  (28) 
0.0

>  <BSK_hDFCGF_MCSF_up>  (28) 
0.0

>  <BSK_hDFCGF_MIG_down>  (28) 
0.0

>  <BSK_hDFCGF_MIG_up>  (28) 
0.0

>  <BSK_hDFCGF_MMP1_down>  (28) 
0.0

>  <BSK_hDFCGF_MMP1_up>  (28) 
0.0

>  <BSK_hDFCGF_PAI1_down>  (28) 
0.0

>  <BSK_hDFCGF_PAI1_up>  (28) 
0.0

>  <BSK_hDFCGF_Proliferation_down>  (28) 
0.0

>  <BSK_hDFCGF_Proliferation_up>  (28) 
0.0

>  <BSK_hDFCGF_SRB_down>  (28) 
0.0

>  <BSK_hDFCGF_SRB_up>  (28) 
0.0

>  <BSK_hDFCGF_TIMP1_down>  (28) 
0.0

>  <BSK_hDFCGF_TIMP1_up>  (28) 
0.0

>  <BSK_hDFCGF_VCAM1_down>  (28) 
0.0

>  <BSK_hDFCGF_VCAM1_up>  (28) 
0.0

>  <NVS_ENZ_hAMPKa1>  (28) 
0.0

>  <NVS_ENZ_hAMPKa1_Activator>  (28) 
0.0

>  <NVS_ENZ_hCASP10>  (28) 
0.0

>  <NVS_ENZ_hCASP10_Activator>  (28) 
0.0

>  <NVS_ENZ_hEGFR>  (28) 
0.0

>  <NVS_ENZ_hEGFR_Activator>  (28) 
0.0

>  <NVS_ENZ_hFGFR1>  (28) 
0.0

>  <NVS_ENZ_hFGFR1_Activator>  (28) 
0.0

>  <NVS_ENZ_hMAPK1>  (28) 
0.0

>  <NVS_ENZ_hMAPK1_Activator>  (28) 
0.0

>  <NVS_ENZ_hMMP2>  (28) 
0.0

>  <NVS_ENZ_hMMP2_Activator>  (28) 
0.0

>  <NVS_ENZ_hMMP3>  (28) 
0.0

>  <NVS_ENZ_hMMP3_Activator>  (28) 
0.0

>  <NVS_ENZ_hMMP7>  (28) 
0.0

>  <NVS_ENZ_hMMP7_Activator>  (28) 
0.0

>  <NVS_ENZ_hTie2>  (28) 
0.0

>  <NVS_ENZ_hTie2_Activator>  (28) 
0.0

>  <NVS_GPCR_hTXA2>  (28) 
0.0

>  <NVS_IC_rCaChN>  (28) 
0.0

>  <NVS_LGIC_rGABARa6>  (28) 
0.0

>  <NVS_TR_rVMAT2>  (28) 
0.0

>  <OT_AR_ARSRC1_0480>  (28) 
0.0

>  <OT_AR_ARSRC1_0960>  (28) 
0.0

>  <OT_ER_ERaERa_0480>  (28) 
0.0

>  <OT_ER_ERaERa_1440>  (28) 
0.0

>  <OT_ER_ERaERb_0480>  (28) 
0.0

>  <OT_ER_ERbERb_0480>  (28) 
0.0

>  <OT_ER_ERbERb_1440>  (28) 
0.0

>  <OT_ERa_EREGFP_0480>  (28) 
0.0

>  <TOX21_AP1_BLA_Agonist_ch1>  (28) 
0.0

>  <TOX21_AP1_BLA_Agonist_ch2>  (28) 
0.0

>  <TOX21_AP1_BLA_Agonist_ratio>  (28) 
0.0

>  <TOX21_AP1_BLA_Agonist_viability>  (28) 
0.0

>  <TOX21_ARE_BLA_Agonist_ch1>  (28) 
0.0

>  <TOX21_ARE_BLA_Agonist_ch2>  (28) 
0.0

>  <TOX21_ARE_BLA_agonist_viability>  (28) 
0.0

>  <TOX21_AR_BLA_Agonist_ch1>  (28) 
0.0

>  <TOX21_AR_BLA_Agonist_ch2>  (28) 
0.0

>  <TOX21_AR_BLA_Agonist_ratio>  (28) 
0.0

>  <TOX21_AR_BLA_Antagonist_ch1>  (28) 
0.0

>  <TOX21_AR_BLA_Antagonist_ch2>  (28) 
0.0

>  <TOX21_AR_BLA_Antagonist_ratio>  (28) 
0.0

>  <TOX21_AR_BLA_Antagonist_viability>  (28) 
0.0

>  <TOX21_AR_LUC_MDAKB2_Agonist>  (28) 
0.0

>  <TOX21_AR_LUC_MDAKB2_Agonist_3uM_Nilutamide>  (28) 
0.0

>  <TOX21_AR_LUC_MDAKB2_Agonist_3uM_Nilutamide_viability>  (28) 
0.0

>  <TOX21_AR_LUC_MDAKB2_Antagonist_0.5nM_R1881>  (28) 
0.0

>  <TOX21_AR_LUC_MDAKB2_Antagonist_0.5nM_R1881_viability>  (28) 
0.0

>  <TOX21_AR_LUC_MDAKB2_Antagonist_10nM_R1881>  (28) 
0.0

>  <TOX21_AR_LUC_MDAKB2_Antagonist_10nM_R1881_viability>  (28) 
0.0

>  <TOX21_AhR_LUC_Agonist>  (28) 
0.0

>  <TOX21_Aromatase_Inhibition>  (28) 
0.0

>  <TOX21_Aromatase_Inhibition_viability>  (28) 
0.0

>  <TOX21_AutoFluor_HEK293_Cell_blue>  (28) 
0.0

>  <TOX21_AutoFluor_HEK293_Cell_green>  (28) 
0.0

>  <TOX21_AutoFluor_HEK293_Cell_red>  (28) 
0.0

>  <TOX21_AutoFluor_HEK293_Media_blue>  (28) 
0.0

>  <TOX21_AutoFluor_HEK293_Media_green>  (28) 
0.0

>  <TOX21_AutoFluor_HEK293_Media_red>  (28) 
0.0

>  <TOX21_AutoFluor_HEPG2_Cell_blue>  (28) 
0.0

>  <TOX21_AutoFluor_HEPG2_Cell_green>  (28) 
0.0

>  <TOX21_AutoFluor_HEPG2_Cell_red>  (28) 
0.0

>  <TOX21_AutoFluor_HEPG2_Media_blue>  (28) 
0.0

>  <TOX21_AutoFluor_HEPG2_Media_green>  (28) 
0.0

>  <TOX21_AutoFluor_HEPG2_Media_red>  (28) 
0.0

>  <TOX21_CAR_Agonist>  (28) 
0.0

>  <TOX21_CAR_Antagonist>  (28) 
0.0

>  <TOX21_CAR_Antagonist_viability>  (28) 
0.0

>  <TOX21_CASP3_CHO>  (28) 
0.0

>  <TOX21_CASP3_CHO_viability>  (28) 
0.0

>  <TOX21_CASP3_HEPG2>  (28) 
0.0

>  <TOX21_CASP3_HEPG2_viability>  (28) 
0.0

>  <TOX21_DT40>  (28) 
0.0

>  <TOX21_DT40_100>  (28) 
0.0

>  <TOX21_DT40_657>  (28) 
0.0

>  <TOX21_ELG1_LUC_Agonist>  (28) 
0.0

>  <TOX21_ELG1_LUC_Agonist_viability>  (28) 
0.0

>  <TOX21_ERR_Agonist>  (28) 
0.0

>  <TOX21_ERR_Antagonist>  (28) 
0.0

>  <TOX21_ERa_BLA_Agonist_ch1>  (28) 
0.0

>  <TOX21_ERa_BLA_Agonist_ch2>  (28) 
0.0

>  <TOX21_ERa_BLA_Agonist_ratio>  (28) 
0.0

>  <TOX21_ERa_BLA_Antagonist_ch1>  (28) 
0.0

>  <TOX21_ERa_BLA_Antagonist_ch2>  (28) 
0.0

>  <TOX21_ERa_BLA_Antagonist_ratio>  (28) 
0.0

>  <TOX21_ERa_BLA_Antagonist_viability>  (28) 
0.0

>  <TOX21_ERa_LUC_VM7_Agonist>  (28) 
0.0

>  <TOX21_ERa_LUC_VM7_Agonist_10nM_ICI182780>  (28) 
0.0

>  <TOX21_ERa_LUC_VM7_Agonist_10nM_ICI182780_viability>  (28) 
0.0

>  <TOX21_ERa_LUC_VM7_Antagonist_0.1nM_E2>  (28) 
0.0

>  <TOX21_ERa_LUC_VM7_Antagonist_0.1nM_E2_viability>  (28) 
0.0

>  <TOX21_ERa_LUC_VM7_Antagonist_0.5nM_E2>  (28) 
0.0

>  <TOX21_ERa_LUC_VM7_Antagonist_0.5nM_E2_viability>  (28) 
0.0

>  <TOX21_ERb_BLA_Agonist_ch1>  (28) 
0.0

>  <TOX21_ERb_BLA_Agonist_ch2>  (28) 
0.0

>  <TOX21_ERb_BLA_Agonist_ratio>  (28) 
0.0

>  <TOX21_ERb_BLA_Agonist_viability>  (28) 
0.0

>  <TOX21_ERb_BLA_Antagonist_ch1>  (28) 
0.0

>  <TOX21_ERb_BLA_Antagonist_ch2>  (28) 
0.0

>  <TOX21_ERb_BLA_Antagonist_ratio>  (28) 
0.0

>  <TOX21_ERb_BLA_Antagonist_viability>  (28) 
0.0

>  <TOX21_ESRE_BLA_ch1>  (28) 
0.0

>  <TOX21_ESRE_BLA_ch2>  (28) 
0.0

>  <TOX21_ESRE_BLA_ratio>  (28) 
0.0

>  <TOX21_ESRE_BLA_viability>  (28) 
0.0

>  <TOX21_FXR_BLA_Antagonist_ch1>  (28) 
0.0

>  <TOX21_FXR_BLA_Antagonist_ch2>  (28) 
0.0

>  <TOX21_FXR_BLA_agonist_ch1>  (28) 
0.0

>  <TOX21_FXR_BLA_agonist_ch2>  (28) 
0.0

>  <TOX21_FXR_BLA_agonist_ratio>  (28) 
0.0

>  <TOX21_FXR_BLA_agonist_viability>  (28) 
0.0

>  <TOX21_FXR_BLA_antagonist_ratio>  (28) 
0.0

>  <TOX21_FXR_BLA_antagonist_viability>  (28) 
0.0

>  <TOX21_GR_BLA_Agonist_ch1>  (28) 
0.0

>  <TOX21_GR_BLA_Agonist_ch2>  (28) 
0.0

>  <TOX21_GR_BLA_Agonist_ratio>  (28) 
0.0

>  <TOX21_GR_BLA_Antagonist_ch1>  (28) 
0.0

>  <TOX21_GR_BLA_Antagonist_ch2>  (28) 
0.0

>  <TOX21_GR_BLA_Antagonist_ratio>  (28) 
0.0

>  <TOX21_GR_BLA_Antagonist_viability>  (28) 
0.0

>  <TOX21_H2AX_HTRF_CHO_Agonist_ch1>  (28) 
0.0

>  <TOX21_H2AX_HTRF_CHO_Agonist_ch2>  (28) 
0.0

>  <TOX21_H2AX_HTRF_CHO_Agonist_ratio>  (28) 
0.0

>  <TOX21_H2AX_HTRF_CHO_viability>  (28) 
0.0

>  <TOX21_HDAC_Inhibition>  (28) 
0.0

>  <TOX21_HDAC_Inhibition_viability>  (28) 
0.0

>  <TOX21_HRE_BLA_Agonist_ch1>  (28) 
0.0

>  <TOX21_HRE_BLA_Agonist_ch2>  (28) 
0.0

>  <TOX21_HRE_BLA_Agonist_ratio>  (28) 
0.0

>  <TOX21_HRE_BLA_Agonist_viability>  (28) 
0.0

>  <TOX21_HSE_BLA_agonist_ch1>  (28) 
0.0

>  <TOX21_HSE_BLA_agonist_ch2>  (28) 
0.0

>  <TOX21_HSE_BLA_agonist_ratio>  (28) 
0.0

>  <TOX21_HSE_BLA_agonist_viability>  (28) 
0.0

>  <TOX21_LUC_Biochem>  (28) 
0.0

>  <TOX21_MMP_fitc>  (28) 
0.0

>  <TOX21_MMP_ratio_down>  (28) 
0.0

>  <TOX21_MMP_ratio_up>  (28) 
0.0

>  <TOX21_MMP_rhodamine>  (28) 
0.0

>  <TOX21_MMP_viability>  (28) 
0.0

>  <TOX21_NFkB_BLA_agonist_ch1>  (28) 
0.0

>  <TOX21_NFkB_BLA_agonist_ch2>  (28) 
0.0

>  <TOX21_NFkB_BLA_agonist_ratio>  (28) 
0.0

>  <TOX21_NFkB_BLA_agonist_viability>  (28) 
0.0

>  <TOX21_PGC_ERR_Agonist>  (28) 
0.0

>  <TOX21_PGC_ERR_Antagonist>  (28) 
0.0

>  <TOX21_PGC_ERR_viability>  (28) 
0.0

>  <TOX21_PPARd_BLA_Agonist_viability>  (28) 
0.0

>  <TOX21_PPARd_BLA_Antagonist_ch1>  (28) 
0.0

>  <TOX21_PPARd_BLA_Antagonist_ch2>  (28) 
0.0

>  <TOX21_PPARd_BLA_agonist_ch1>  (28) 
0.0

>  <TOX21_PPARd_BLA_agonist_ch2>  (28) 
0.0

>  <TOX21_PPARd_BLA_agonist_ratio>  (28) 
0.0

>  <TOX21_PPARd_BLA_antagonist_ratio>  (28) 
0.0

>  <TOX21_PPARd_BLA_antagonist_viability>  (28) 
0.0

>  <TOX21_PPARg_BLA_Agonist_ch1>  (28) 
0.0

>  <TOX21_PPARg_BLA_Agonist_ch2>  (28) 
0.0

>  <TOX21_PPARg_BLA_Agonist_ratio>  (28) 
0.0

>  <TOX21_PPARg_BLA_Antagonist_ch1>  (28) 
0.0

>  <TOX21_PPARg_BLA_Antagonist_ch2>  (28) 
0.0

>  <TOX21_PPARg_BLA_antagonist_ratio>  (28) 
0.0

>  <TOX21_PPARg_BLA_antagonist_viability>  (28) 
0.0

>  <TOX21_PR_BLA_Agonist_ch1>  (28) 
0.0

>  <TOX21_PR_BLA_Agonist_ch2>  (28) 
0.0

>  <TOX21_PR_BLA_Agonist_ratio>  (28) 
0.0

>  <TOX21_PR_BLA_Antagonist_ch1>  (28) 
0.0

>  <TOX21_PR_BLA_Antagonist_ch2>  (28) 
0.0

>  <TOX21_PR_BLA_Antagonist_ratio>  (28) 
0.0

>  <TOX21_PR_BLA_Antagonist_viability>  (28) 
0.0

>  <TOX21_PXR_Agonist>  (28) 
0.0

>  <TOX21_PXR_viability>  (28) 
0.0

>  <TOX21_RAR_LUC_Agonist>  (28) 
0.0

>  <TOX21_RAR_LUC_Agonist_viability>  (28) 
0.0

>  <TOX21_RAR_LUC_Antagonist_viability>  (28) 
0.0

>  <TOX21_RORg_LUC_CHO_Antagonist>  (28) 
0.0

>  <TOX21_RORg_LUC_CHO_Antagonist_viability>  (28) 
0.0

>  <TOX21_RT_HEK293_FLO_00hr_viability>  (28) 
0.0

>  <TOX21_RT_HEK293_FLO_08hr_viability>  (28) 
0.0

>  <TOX21_RT_HEK293_FLO_16hr_viability>  (28) 
0.0

>  <TOX21_RT_HEK293_FLO_24hr_viability>  (28) 
0.0

>  <TOX21_RT_HEK293_FLO_32hr_viability>  (28) 
0.0

>  <TOX21_RT_HEK293_FLO_40hr_viability>  (28) 
0.0

>  <TOX21_RT_HEK293_GLO_00hr_viability>  (28) 
0.0

>  <TOX21_RT_HEK293_GLO_08hr_viability>  (28) 
0.0

>  <TOX21_RT_HEK293_GLO_16hr_viability>  (28) 
0.0

>  <TOX21_RT_HEK293_GLO_24hr_viability>  (28) 
0.0

>  <TOX21_RT_HEK293_GLO_32hr_viability>  (28) 
0.0

>  <TOX21_RT_HEK293_GLO_40hr_viability>  (28) 
0.0

>  <TOX21_RT_HEPG2_FLO_00hr_ctrl_viability>  (28) 
0.0

>  <TOX21_RT_HEPG2_FLO_08hr_viability>  (28) 
0.0

>  <TOX21_RT_HEPG2_FLO_16hr_ctrl_viability>  (28) 
0.0

>  <TOX21_RT_HEPG2_FLO_24hr_viability>  (28) 
0.0

>  <TOX21_RT_HEPG2_FLO_32hr_ctrl_viability>  (28) 
0.0

>  <TOX21_RT_HEPG2_GLO_00hr_ctrl_viability>  (28) 
0.0

>  <TOX21_RT_HEPG2_GLO_08hr_ctrl_viability>  (28) 
0.0

>  <TOX21_RT_HEPG2_GLO_16hr_ctrl_viability>  (28) 
0.0

>  <TOX21_RT_HEPG2_GLO_24hr_ctrl_viability>  (28) 
0.0

>  <TOX21_RT_HEPG2_GLO_32hr_ctrl_viability>  (28) 
0.0

>  <TOX21_RT_HEPG2_GLO_40hr_viability>  (28) 
0.0

>  <TOX21_RXR_BLA_Agonist_ch1>  (28) 
0.0

>  <TOX21_RXR_BLA_Agonist_ch2>  (28) 
0.0

>  <TOX21_RXR_BLA_Agonist_ratio>  (28) 
0.0

>  <TOX21_RXR_BLA_Agonist_viability>  (28) 
0.0

>  <TOX21_SBE_BLA_Agonist_ch1>  (28) 
0.0

>  <TOX21_SBE_BLA_Agonist_ch2>  (28) 
0.0

>  <TOX21_SBE_BLA_Agonist_ratio>  (28) 
0.0

>  <TOX21_SBE_BLA_Agonist_viability>  (28) 
0.0

>  <TOX21_SBE_BLA_Antagonist_ch1>  (28) 
0.0

>  <TOX21_SBE_BLA_Antagonist_ch2>  (28) 
0.0

>  <TOX21_SBE_BLA_Antagonist_ratio>  (28) 
0.0

>  <TOX21_SBE_BLA_Antagonist_viability>  (28) 
0.0

>  <TOX21_SSH_3T3_GLI3_Agonist>  (28) 
0.0

>  <TOX21_SSH_3T3_GLI3_Agonist_viability>  (28) 
0.0

>  <TOX21_SSH_3T3_GLI3_Antagonist>  (28) 
0.0

>  <TOX21_SSH_3T3_GLI3_Antagonist_viability>  (28) 
0.0

>  <TOX21_TRHR_HEK293_Agonist>  (28) 
0.0

>  <TOX21_TRHR_HEK293_Antagonist>  (28) 
0.0

>  <TOX21_TR_LUC_GH3_Agonist>  (28) 
0.0

>  <TOX21_TR_LUC_GH3_Antagonist>  (28) 
0.0

>  <TOX21_TR_LUC_GH3_Antagonist_viability>  (28) 
0.0

>  <TOX21_TSHR_Agonist_ch2>  (28) 
0.0

>  <TOX21_TSHR_Antagonist_ch2>  (28) 
0.0

>  <TOX21_TSHR_Antagonist_ratio>  (28) 
0.0

>  <TOX21_TSHR_HTRF_Agonist_ch1>  (28) 
0.0

>  <TOX21_TSHR_HTRF_Antagonist_ch1>  (28) 
0.0

>  <TOX21_TSHR_wt_HTRF_ch1>  (28) 
0.0

>  <TOX21_TSHR_wt_ch2>  (28) 
0.0

>  <TOX21_TSHR_wt_ratio>  (28) 
0.0

>  <TOX21_VDR_BLA_Agonist_viability>  (28) 
0.0

>  <TOX21_VDR_BLA_Antagonist_ch1>  (28) 
0.0

>  <TOX21_VDR_BLA_Antagonist_ch2>  (28) 
0.0

>  <TOX21_VDR_BLA_agonist_ch1>  (28) 
0.0

>  <TOX21_VDR_BLA_agonist_ch2>  (28) 
0.0

>  <TOX21_VDR_BLA_agonist_ratio>  (28) 
0.0

>  <TOX21_VDR_BLA_antagonist_ratio>  (28) 
0.0

>  <TOX21_VDR_BLA_antagonist_viability>  (28) 
0.0

>  <TOX21_p53_BLA_p1_ch1>  (28) 
0.0

>  <TOX21_p53_BLA_p1_ch2>  (28) 
0.0

>  <TOX21_p53_BLA_p1_ratio>  (28) 
0.0

>  <TOX21_p53_BLA_p1_viability>  (28) 
0.0

>  <TOX21_p53_BLA_p2_ch1>  (28) 
0.0

>  <TOX21_p53_BLA_p2_ch2>  (28) 
0.0

>  <TOX21_p53_BLA_p2_ratio>  (28) 
0.0

>  <TOX21_p53_BLA_p2_viability>  (28) 
0.0

>  <TOX21_p53_BLA_p3_ch1>  (28) 
0.0

>  <TOX21_p53_BLA_p3_ch2>  (28) 
0.0

>  <TOX21_p53_BLA_p3_ratio>  (28) 
0.0

>  <TOX21_p53_BLA_p4_ch1>  (28) 
0.0

>  <TOX21_p53_BLA_p4_ch2>  (28) 
0.0

>  <TOX21_p53_BLA_p4_ratio>  (28) 
0.0

>  <TOX21_p53_BLA_p4_viability>  (28) 
0.0

>  <TOX21_p53_BLA_p5_ch1>  (28) 
0.0

>  <TOX21_p53_BLA_p5_ch2>  (28) 
0.0

>  <TOX21_p53_BLA_p5_ratio>  (28) 
0.0

>  <TOX21_p53_BLA_p5_viability>  (28) 
0.0

>  <Tanguay_ZF_120hpf_AXIS_up>  (28) 
0.0

>  <Tanguay_ZF_120hpf_ActivityScore>  (28) 
0.0

>  <Tanguay_ZF_120hpf_BRAI_up>  (28) 
0.0

>  <Tanguay_ZF_120hpf_CFIN_up>  (28) 
0.0

>  <Tanguay_ZF_120hpf_CIRC_up>  (28) 
0.0

>  <Tanguay_ZF_120hpf_EYE_up>  (28) 
0.0

>  <Tanguay_ZF_120hpf_JAW_up>  (28) 
0.0

>  <Tanguay_ZF_120hpf_MORT_up>  (28) 
0.0

>  <Tanguay_ZF_120hpf_NC_up>  (28) 
0.0

>  <Tanguay_ZF_120hpf_OTIC_up>  (28) 
0.0

>  <Tanguay_ZF_120hpf_PE_up>  (28) 
0.0

>  <Tanguay_ZF_120hpf_PFIN_up>  (28) 
0.0

>  <Tanguay_ZF_120hpf_PIG_up>  (28) 
0.0

>  <Tanguay_ZF_120hpf_SNOU_up>  (28) 
0.0

>  <Tanguay_ZF_120hpf_SOMI_up>  (28) 
0.0

>  <Tanguay_ZF_120hpf_SWIM_up>  (28) 
0.0

>  <Tanguay_ZF_120hpf_TRUN_up>  (28) 
0.0

>  <Tanguay_ZF_120hpf_TR_up>  (28) 
0.0

>  <Tanguay_ZF_120hpf_YSE_up>  (28) 
0.0

>  <UPITT_HCI_U2OS_AR_TIF2_Nucleoli_Agonist>  (28) 
0.0

>  <UPITT_HCI_U2OS_AR_TIF2_Nucleoli_Antagonist>  (28) 
0.0

>  <UPITT_HCI_U2OS_AR_TIF2_Nucleoli_Cytoplasm_Ratio_Agonist>  (28) 
0.0

>  <UPITT_HCI_U2OS_AR_TIF2_Nucleoli_Cytoplasm_Ratio_Antagonist>  (28) 
0.0

>  <NVS_NR_mERa>  (28) 
0

$$$$

     RDKit          3D

 21 23  0  0  0  0  0  0  0  0999 V2000
    0.0000    0.0000    0.0000 C   0  0  0  0  0  0  0  0  0  0  0  0
    0.0000    0.0000    0.0000 C   0  0  0  0  0  0  0  0  0  0  0  0
    0.0000    0.0000    0.0000 C   0  0  0  0  0  0  0  0  0  0  0  0
    0.0000    0.0000    0.0000 C   0  0  0  0  0  0  0  0  0  0  0  0
    0.0000    0.0000    0.0000 C   0  0  0  0  0  0  0  0  0  0  0  0
    0.0000    0.0000    0.0000 C   0  0  0  0  0  0  0  0  0  0  0  0
    0.0000    0.0000    0.0000 C   0  0  0  0  0  0  0  0  0  0  0  0
    0.0000    0.0000    0.0000 C   0  0  0  0  0  0  0  0  0  0  0  0
    0.0000    0.0000    0.0000 C   0  0  0  0  0  0  0  0  0  0  0  0
    0.0000    0.0000    0.0000 O   0  0  0  0  0  0  0  0  0  0  0  0
    0.0000    0.0000    0.0000 C   0  0  0  0  0  0  0  0  0  0  0  0
    0.0000    0.0000    0.0000 C   0  0  0  0  0  0  0  0  0  0  0  0
    0.0000    0.0000    0.0000 C   0  0  0  0  0  0  0  0  0  0  0  0
    0.0000    0.0000    0.0000 C   0  0  0  0  0  0  0  0  0  0  0  0
    0.0000    0.0000    0.0000 C   0  0  0  0  0  0  0  0  0  0  0  0
    0.0000    0.0000    0.0000 C   0  0  0  0  0  0  0  0  0  0  0  0
    0.0000    0.0000    0.0000 O   0  0  0  0  0  0  0  0  0  0  0  0
    0.0000    0.0000    0.0000 O   0  0  0  0  0  0  0  0  0  0  0  0
    0.0000    0.0000    0.0000 O   0  0  0  0  0  0  0  0  0  0  0  0
    0.0000    0.0000    0.0000 O   0  0  0  0  0  0  0  0  0  0  0  0
    0.0000    0.0000    0.0000 O   0  0  0  0  0  0  0  0  0  0  0  0
  1  2  2  0
  2  3  1  0
  3  4  2  0
  4  5  1  0
  5  6  2  0
  6  7  1  0
  7  8  2  0
  8  9  1  0
  9 10  2  0
  9 11  1  0
 11 12  2  0
 12 13  1  0
 13 14  2  0
 14 15  1  0
 15 16  2  0
 16 17  1  0
 14 18  1  0
 12 19  1  0
  8 20  1  0
  3 21  1  0
  6  1  1  0
 17  7  1  0
 16 11  1  0
M  END
>  <CASRN>  (29) 
520-18-3

>  <Name>  (29) 
Kaempferol

>  <Active>  (29) 
0

>  <Inactive>  (29) 
3

>  <Bioactivity>  (29) 
Inactive

>  <Min LEL>  (29) 
nan

>  <Max HDT>  (29) 
1000.0

>  <Class>  (29) 
0

>  <Code>  (29) 
C520183

>  <NVS_NR_hER>  (29) 
1.0

>  <NVS_NR_rAR>  (29) 
0.0

>  <OT_ER_ERaERb_1440>  (29) 
1.0

>  <OT_FXR_FXRSRC1_0480>  (29) 
0.0

>  <OT_PPARg_PPARgSRC1_1440>  (29) 
0.0

>  <OT_FXR_FXRSRC1_1440>  (29) 
1.0

>  <OT_NURR1_NURR1RXRa_0480>  (29) 
1.0

>  <OT_NURR1_NURR1RXRa_1440>  (29) 
0.0

>  <OT_PPARg_PPARgSRC1_0480>  (29) 
0.0

>  <OT_AR_ARELUC_AG_1440>  (29) 
0.0

>  <OT_ERa_EREGFP_0120>  (29) 
1.0

>  <ATG_CAR_TRANS_up>  (29) 
0.0

>  <ATG_E2F_CIS_dn>  (29) 
0.0

>  <ATG_EGR_CIS_up>  (29) 
0.0

>  <ATG_ERa_TRANS_dn>  (29) 
0.0

>  <ATG_ERa_TRANS_up>  (29) 
1.0

>  <ATG_FXR_TRANS_dn>  (29) 
0.0

>  <ATG_GLI_CIS_dn>  (29) 
0.0

>  <ATG_GRE_CIS_up>  (29) 
0.0

>  <ATG_LXRa_TRANS_dn>  (29) 
0.0

>  <ATG_LXRa_TRANS_up>  (29) 
1.0

>  <ATG_NRF1_CIS_up>  (29) 
0.0

>  <ATG_NURR1_TRANS_up>  (29) 
0.0

>  <ATG_Sox_CIS_dn>  (29) 
0.0

>  <ATG_Sox_CIS_up>  (29) 
0.0

>  <ATG_Sp1_CIS_up>  (29) 
0.0

>  <ATG_TGFb_CIS_up>  (29) 
0.0

>  <TOX21_ARE_BLA_agonist_ratio>  (29) 
0.0

>  <TOX21_RAR_LUC_Antagonist>  (29) 
0.0

>  <ATG_LXRb_TRANS_dn>  (29) 
0.0

>  <ATG_CAR_TRANS_dn>  (29) 
0.0

>  <ATG_BRE_CIS_dn>  (29) 
0.0

>  <ATG_E2F_CIS_up>  (29) 
0.0

>  <TOX21_TSHR_Agonist_ratio>  (29) 
0.0

>  <ACEA_ER_80hr>  (29) 
1.0

>  <TOX21_CAR_Agonist_viabillity>  (29) 
1.0

>  <TOX21_PR_BLA_Agonist_viability>  (29) 
0.0

>  <TOX21_RT_HEPG2_FLO_40hr_ctrl_viability>  (29) 
0.0

>  <TOX21_AhR_LUC_Agonist_viability>  (29) 
0.0

>  <TOX21_ERR_viability>  (29) 
1.0

>  <TOX21_p53_BLA_p3_viability>  (29) 
0.0

>  <NVS_NR_cAR>  (29) 
1.0

>  <NVS_NR_hPR>  (29) 
1.0

>  <BSK_3C_HLADR_down>  (29) 
1.0

>  <BSK_3C_Vis_down>  (29) 
1.0

>  <BSK_3C_uPAR_down>  (29) 
1.0

>  <NVS_NR_hGR>  (29) 
1.0

>  <NVS_NR_hAR>  (29) 
1.0

>  <NVS_NR_bER>  (29) 
0.0

>  <ACEA_AR_agonist_80hr>  (29) 
0.0

>  <ACEA_AR_agonist_AUC_viability>  (29) 
1.0

>  <ACEA_AR_antagonist_80hr>  (29) 
1.0

>  <ACEA_AR_antagonist_AUC_viability>  (29) 
1.0

>  <ACEA_ER_AUC_viability>  (29) 
0.0

>  <ATG_AP_1_CIS_dn>  (29) 
0.0

>  <ATG_AP_1_CIS_up>  (29) 
0.0

>  <ATG_AP_2_CIS_dn>  (29) 
0.0

>  <ATG_AP_2_CIS_up>  (29) 
0.0

>  <ATG_AR_TRANS_dn>  (29) 
0.0

>  <ATG_AR_TRANS_up>  (29) 
0.0

>  <ATG_Ahr_CIS_dn>  (29) 
1.0

>  <ATG_Ahr_CIS_up>  (29) 
0.0

>  <ATG_BRE_CIS_up>  (29) 
0.0

>  <ATG_CMV_CIS_dn>  (29) 
0.0

>  <ATG_CMV_CIS_up>  (29) 
1.0

>  <ATG_CRE_CIS_dn>  (29) 
0.0

>  <ATG_CRE_CIS_up>  (29) 
0.0

>  <ATG_C_EBP_CIS_dn>  (29) 
0.0

>  <ATG_C_EBP_CIS_up>  (29) 
0.0

>  <ATG_DR4_LXR_CIS_dn>  (29) 
0.0

>  <ATG_DR4_LXR_CIS_up>  (29) 
0.0

>  <ATG_DR5_CIS_dn>  (29) 
0.0

>  <ATG_DR5_CIS_up>  (29) 
0.0

>  <ATG_EGR_CIS_dn>  (29) 
0.0

>  <ATG_ERE_CIS_dn>  (29) 
0.0

>  <ATG_ERE_CIS_up>  (29) 
1.0

>  <ATG_ERRa_TRANS_dn>  (29) 
0.0

>  <ATG_ERRa_TRANS_up>  (29) 
0.0

>  <ATG_ERRg_TRANS_dn>  (29) 
0.0

>  <ATG_ERRg_TRANS_up>  (29) 
0.0

>  <ATG_E_Box_CIS_dn>  (29) 
0.0

>  <ATG_E_Box_CIS_up>  (29) 
0.0

>  <ATG_Ets_CIS_dn>  (29) 
0.0

>  <ATG_Ets_CIS_up>  (29) 
0.0

>  <ATG_FXR_TRANS_up>  (29) 
0.0

>  <ATG_FoxA2_CIS_dn>  (29) 
0.0

>  <ATG_FoxA2_CIS_up>  (29) 
0.0

>  <ATG_FoxO_CIS_dn>  (29) 
0.0

>  <ATG_FoxO_CIS_up>  (29) 
0.0

>  <ATG_GAL4_TRANS_dn>  (29) 
0.0

>  <ATG_GAL4_TRANS_up>  (29) 
0.0

>  <ATG_GATA_CIS_dn>  (29) 
0.0

>  <ATG_GATA_CIS_up>  (29) 
0.0

>  <ATG_GLI_CIS_up>  (29) 
0.0

>  <ATG_GRE_CIS_dn>  (29) 
0.0

>  <ATG_GR_TRANS_dn>  (29) 
0.0

>  <ATG_GR_TRANS_up>  (29) 
0.0

>  <ATG_HIF1a_CIS_dn>  (29) 
0.0

>  <ATG_HIF1a_CIS_up>  (29) 
0.0

>  <ATG_HNF4a_TRANS_dn>  (29) 
0.0

>  <ATG_HNF4a_TRANS_up>  (29) 
0.0

>  <ATG_HNF6_CIS_dn>  (29) 
0.0

>  <ATG_HNF6_CIS_up>  (29) 
0.0

>  <ATG_HSE_CIS_dn>  (29) 
0.0

>  <ATG_HSE_CIS_up>  (29) 
0.0

>  <ATG_IR1_CIS_dn>  (29) 
0.0

>  <ATG_IR1_CIS_up>  (29) 
0.0

>  <ATG_ISRE_CIS_dn>  (29) 
0.0

>  <ATG_ISRE_CIS_up>  (29) 
0.0

>  <ATG_LXRb_TRANS_up>  (29) 
0.0

>  <ATG_MRE_CIS_dn>  (29) 
0.0

>  <ATG_MRE_CIS_up>  (29) 
0.0

>  <ATG_M_06_CIS_dn>  (29) 
0.0

>  <ATG_M_06_CIS_up>  (29) 
0.0

>  <ATG_M_06_TRANS_dn>  (29) 
0.0

>  <ATG_M_06_TRANS_up>  (29) 
0.0

>  <ATG_M_19_CIS_dn>  (29) 
0.0

>  <ATG_M_19_CIS_up>  (29) 
0.0

>  <ATG_M_19_TRANS_dn>  (29) 
0.0

>  <ATG_M_19_TRANS_up>  (29) 
0.0

>  <ATG_M_32_CIS_dn>  (29) 
0.0

>  <ATG_M_32_CIS_up>  (29) 
0.0

>  <ATG_M_32_TRANS_dn>  (29) 
0.0

>  <ATG_M_32_TRANS_up>  (29) 
0.0

>  <ATG_M_61_CIS_dn>  (29) 
0.0

>  <ATG_M_61_CIS_up>  (29) 
0.0

>  <ATG_M_61_TRANS_dn>  (29) 
0.0

>  <ATG_M_61_TRANS_up>  (29) 
0.0

>  <ATG_Myb_CIS_dn>  (29) 
0.0

>  <ATG_Myb_CIS_up>  (29) 
0.0

>  <ATG_Myc_CIS_dn>  (29) 
0.0

>  <ATG_Myc_CIS_up>  (29) 
0.0

>  <ATG_NFI_CIS_dn>  (29) 
0.0

>  <ATG_NFI_CIS_up>  (29) 
0.0

>  <ATG_NF_kB_CIS_dn>  (29) 
0.0

>  <ATG_NF_kB_CIS_up>  (29) 
1.0

>  <ATG_NRF1_CIS_dn>  (29) 
0.0

>  <ATG_NRF2_ARE_CIS_dn>  (29) 
0.0

>  <ATG_NRF2_ARE_CIS_up>  (29) 
1.0

>  <ATG_NURR1_TRANS_dn>  (29) 
0.0

>  <ATG_Oct_MLP_CIS_dn>  (29) 
0.0

>  <ATG_Oct_MLP_CIS_up>  (29) 
0.0

>  <ATG_PBREM_CIS_dn>  (29) 
0.0

>  <ATG_PBREM_CIS_up>  (29) 
0.0

>  <ATG_PPARa_TRANS_dn>  (29) 
0.0

>  <ATG_PPARa_TRANS_up>  (29) 
0.0

>  <ATG_PPARd_TRANS_dn>  (29) 
0.0

>  <ATG_PPARd_TRANS_up>  (29) 
0.0

>  <ATG_PPARg_TRANS_dn>  (29) 
0.0

>  <ATG_PPARg_TRANS_up>  (29) 
1.0

>  <ATG_PPRE_CIS_dn>  (29) 
0.0

>  <ATG_PPRE_CIS_up>  (29) 
0.0

>  <ATG_PXRE_CIS_dn>  (29) 
1.0

>  <ATG_PXRE_CIS_up>  (29) 
0.0

>  <ATG_PXR_TRANS_dn>  (29) 
0.0

>  <ATG_PXR_TRANS_up>  (29) 
0.0

>  <ATG_Pax6_CIS_dn>  (29) 
0.0

>  <ATG_Pax6_CIS_up>  (29) 
0.0

>  <ATG_RARa_TRANS_dn>  (29) 
0.0

>  <ATG_RARa_TRANS_up>  (29) 
0.0

>  <ATG_RARb_TRANS_dn>  (29) 
0.0

>  <ATG_RARb_TRANS_up>  (29) 
0.0

>  <ATG_RARg_TRANS_dn>  (29) 
0.0

>  <ATG_RARg_TRANS_up>  (29) 
0.0

>  <ATG_RORE_CIS_dn>  (29) 
0.0

>  <ATG_RORE_CIS_up>  (29) 
0.0

>  <ATG_RORb_TRANS_dn>  (29) 
0.0

>  <ATG_RORb_TRANS_up>  (29) 
0.0

>  <ATG_RORg_TRANS_dn>  (29) 
0.0

>  <ATG_RORg_TRANS_up>  (29) 
0.0

>  <ATG_RXRa_TRANS_dn>  (29) 
0.0

>  <ATG_RXRa_TRANS_up>  (29) 
0.0

>  <ATG_RXRb_TRANS_dn>  (29) 
0.0

>  <ATG_RXRb_TRANS_up>  (29) 
0.0

>  <ATG_SREBP_CIS_dn>  (29) 
0.0

>  <ATG_SREBP_CIS_up>  (29) 
0.0

>  <ATG_STAT3_CIS_dn>  (29) 
0.0

>  <ATG_STAT3_CIS_up>  (29) 
0.0

>  <ATG_Sp1_CIS_dn>  (29) 
0.0

>  <ATG_TAL_CIS_dn>  (29) 
0.0

>  <ATG_TAL_CIS_up>  (29) 
0.0

>  <ATG_TA_CIS_dn>  (29) 
0.0

>  <ATG_TA_CIS_up>  (29) 
0.0

>  <ATG_TCF_b_cat_CIS_dn>  (29) 
0.0

>  <ATG_TCF_b_cat_CIS_up>  (29) 
0.0

>  <ATG_TGFb_CIS_dn>  (29) 
0.0

>  <ATG_THRa1_TRANS_dn>  (29) 
0.0

>  <ATG_THRa1_TRANS_up>  (29) 
0.0

>  <ATG_VDRE_CIS_dn>  (29) 
0.0

>  <ATG_VDRE_CIS_up>  (29) 
0.0

>  <ATG_VDR_TRANS_dn>  (29) 
0.0

>  <ATG_VDR_TRANS_up>  (29) 
0.0

>  <ATG_XTT_Cytotoxicity_up>  (29) 
0.0

>  <ATG_Xbp1_CIS_dn>  (29) 
0.0

>  <ATG_Xbp1_CIS_up>  (29) 
0.0

>  <ATG_p53_CIS_dn>  (29) 
0.0

>  <ATG_p53_CIS_up>  (29) 
0.0

>  <NCCT_HEK293T_CellTiterGLO>  (29) 
1.0

>  <NCCT_QuantiLum_inhib_2_dn>  (29) 
1.0

>  <NCCT_TPO_AUR_dn>  (29) 
1.0

>  <NVS_GPCR_rTRH>  (29) 
0.0

>  <NVS_NR_hPPARg>  (29) 
0.0

>  <OT_AR_ARSRC1_0480>  (29) 
0.0

>  <OT_AR_ARSRC1_0960>  (29) 
0.0

>  <OT_ER_ERaERa_0480>  (29) 
1.0

>  <OT_ER_ERaERa_1440>  (29) 
1.0

>  <OT_ER_ERaERb_0480>  (29) 
1.0

>  <OT_ER_ERbERb_0480>  (29) 
1.0

>  <OT_ER_ERbERb_1440>  (29) 
1.0

>  <OT_ERa_EREGFP_0480>  (29) 
0.0

>  <TOX21_AP1_BLA_Agonist_ch1>  (29) 
0.0

>  <TOX21_AP1_BLA_Agonist_ch2>  (29) 
0.0

>  <TOX21_AP1_BLA_Agonist_ratio>  (29) 
0.0

>  <TOX21_AP1_BLA_Agonist_viability>  (29) 
0.0

>  <TOX21_ARE_BLA_Agonist_ch1>  (29) 
0.0

>  <TOX21_ARE_BLA_Agonist_ch2>  (29) 
0.0

>  <TOX21_ARE_BLA_agonist_viability>  (29) 
0.0

>  <TOX21_AR_BLA_Agonist_ch1>  (29) 
0.0

>  <TOX21_AR_BLA_Agonist_ch2>  (29) 
0.0

>  <TOX21_AR_BLA_Agonist_ratio>  (29) 
0.0

>  <TOX21_AR_BLA_Antagonist_ch1>  (29) 
1.0

>  <TOX21_AR_BLA_Antagonist_ch2>  (29) 
1.0

>  <TOX21_AR_BLA_Antagonist_ratio>  (29) 
1.0

>  <TOX21_AR_BLA_Antagonist_viability>  (29) 
0.0

>  <TOX21_AR_LUC_MDAKB2_Agonist>  (29) 
0.0

>  <TOX21_AR_LUC_MDAKB2_Agonist_3uM_Nilutamide>  (29) 
0.0

>  <TOX21_AR_LUC_MDAKB2_Agonist_3uM_Nilutamide_viability>  (29) 
1.0

>  <TOX21_AR_LUC_MDAKB2_Antagonist_0.5nM_R1881>  (29) 
1.0

>  <TOX21_AR_LUC_MDAKB2_Antagonist_0.5nM_R1881_viability>  (29) 
0.0

>  <TOX21_AR_LUC_MDAKB2_Antagonist_10nM_R1881>  (29) 
0.0

>  <TOX21_AR_LUC_MDAKB2_Antagonist_10nM_R1881_viability>  (29) 
0.0

>  <TOX21_AhR_LUC_Agonist>  (29) 
1.0

>  <TOX21_Aromatase_Inhibition>  (29) 
1.0

>  <TOX21_Aromatase_Inhibition_viability>  (29) 
1.0

>  <TOX21_AutoFluor_HEK293_Cell_blue>  (29) 
0.0

>  <TOX21_AutoFluor_HEK293_Cell_green>  (29) 
0.0

>  <TOX21_AutoFluor_HEK293_Cell_red>  (29) 
0.0

>  <TOX21_AutoFluor_HEK293_Media_blue>  (29) 
0.0

>  <TOX21_AutoFluor_HEK293_Media_green>  (29) 
0.0

>  <TOX21_AutoFluor_HEK293_Media_red>  (29) 
0.0

>  <TOX21_AutoFluor_HEPG2_Cell_blue>  (29) 
0.0

>  <TOX21_AutoFluor_HEPG2_Cell_green>  (29) 
0.0

>  <TOX21_AutoFluor_HEPG2_Cell_red>  (29) 
0.0

>  <TOX21_AutoFluor_HEPG2_Media_blue>  (29) 
0.0

>  <TOX21_AutoFluor_HEPG2_Media_green>  (29) 
0.0

>  <TOX21_AutoFluor_HEPG2_Media_red>  (29) 
0.0

>  <TOX21_CAR_Agonist>  (29) 
1.0

>  <TOX21_CAR_Antagonist>  (29) 
0.0

>  <TOX21_CAR_Antagonist_viability>  (29) 
1.0

>  <TOX21_CASP3_CHO>  (29) 
0.0

>  <TOX21_CASP3_CHO_viability>  (29) 
1.0

>  <TOX21_CASP3_HEPG2>  (29) 
0.0

>  <TOX21_CASP3_HEPG2_viability>  (29) 
1.0

>  <TOX21_DT40>  (29) 
1.0

>  <TOX21_DT40_100>  (29) 
1.0

>  <TOX21_DT40_657>  (29) 
1.0

>  <TOX21_ELG1_LUC_Agonist>  (29) 
0.0

>  <TOX21_ELG1_LUC_Agonist_viability>  (29) 
0.0

>  <TOX21_ERR_Agonist>  (29) 
0.0

>  <TOX21_ERR_Antagonist>  (29) 
0.0

>  <TOX21_ERa_BLA_Agonist_ch1>  (29) 
1.0

>  <TOX21_ERa_BLA_Agonist_ch2>  (29) 
1.0

>  <TOX21_ERa_BLA_Agonist_ratio>  (29) 
1.0

>  <TOX21_ERa_BLA_Antagonist_ch1>  (29) 
0.0

>  <TOX21_ERa_BLA_Antagonist_ch2>  (29) 
1.0

>  <TOX21_ERa_BLA_Antagonist_ratio>  (29) 
1.0

>  <TOX21_ERa_BLA_Antagonist_viability>  (29) 
0.0

>  <TOX21_ERa_LUC_VM7_Agonist>  (29) 
1.0

>  <TOX21_ERa_LUC_VM7_Agonist_10nM_ICI182780>  (29) 
1.0

>  <TOX21_ERa_LUC_VM7_Agonist_10nM_ICI182780_viability>  (29) 
1.0

>  <TOX21_ERa_LUC_VM7_Antagonist_0.1nM_E2>  (29) 
0.0

>  <TOX21_ERa_LUC_VM7_Antagonist_0.1nM_E2_viability>  (29) 
0.0

>  <TOX21_ERa_LUC_VM7_Antagonist_0.5nM_E2>  (29) 
1.0

>  <TOX21_ERa_LUC_VM7_Antagonist_0.5nM_E2_viability>  (29) 
1.0

>  <TOX21_ERb_BLA_Agonist_ch1>  (29) 
0.0

>  <TOX21_ERb_BLA_Agonist_ch2>  (29) 
1.0

>  <TOX21_ERb_BLA_Agonist_ratio>  (29) 
1.0

>  <TOX21_ERb_BLA_Agonist_viability>  (29) 
0.0

>  <TOX21_ERb_BLA_Antagonist_ch1>  (29) 
1.0

>  <TOX21_ERb_BLA_Antagonist_ch2>  (29) 
1.0

>  <TOX21_ERb_BLA_Antagonist_ratio>  (29) 
1.0

>  <TOX21_ERb_BLA_Antagonist_viability>  (29) 
0.0

>  <TOX21_ESRE_BLA_ch1>  (29) 
0.0

>  <TOX21_ESRE_BLA_ch2>  (29) 
0.0

>  <TOX21_ESRE_BLA_ratio>  (29) 
0.0

>  <TOX21_ESRE_BLA_viability>  (29) 
0.0

>  <TOX21_FXR_BLA_Antagonist_ch1>  (29) 
0.0

>  <TOX21_FXR_BLA_Antagonist_ch2>  (29) 
0.0

>  <TOX21_FXR_BLA_agonist_ch1>  (29) 
0.0

>  <TOX21_FXR_BLA_agonist_ch2>  (29) 
0.0

>  <TOX21_FXR_BLA_agonist_ratio>  (29) 
0.0

>  <TOX21_FXR_BLA_agonist_viability>  (29) 
0.0

>  <TOX21_FXR_BLA_antagonist_ratio>  (29) 
0.0

>  <TOX21_FXR_BLA_antagonist_viability>  (29) 
0.0

>  <TOX21_GR_BLA_Agonist_ch1>  (29) 
1.0

>  <TOX21_GR_BLA_Agonist_ch2>  (29) 
0.0

>  <TOX21_GR_BLA_Agonist_ratio>  (29) 
0.0

>  <TOX21_GR_BLA_Antagonist_ch1>  (29) 
0.0

>  <TOX21_GR_BLA_Antagonist_ch2>  (29) 
1.0

>  <TOX21_GR_BLA_Antagonist_ratio>  (29) 
1.0

>  <TOX21_GR_BLA_Antagonist_viability>  (29) 
0.0

>  <TOX21_H2AX_HTRF_CHO_Agonist_ch1>  (29) 
0.0

>  <TOX21_H2AX_HTRF_CHO_Agonist_ch2>  (29) 
0.0

>  <TOX21_H2AX_HTRF_CHO_Agonist_ratio>  (29) 
1.0

>  <TOX21_H2AX_HTRF_CHO_viability>  (29) 
0.0

>  <TOX21_HDAC_Inhibition>  (29) 
1.0

>  <TOX21_HDAC_Inhibition_viability>  (29) 
0.0

>  <TOX21_HRE_BLA_Agonist_ch1>  (29) 
0.0

>  <TOX21_HRE_BLA_Agonist_ch2>  (29) 
0.0

>  <TOX21_HRE_BLA_Agonist_ratio>  (29) 
0.0

>  <TOX21_HRE_BLA_Agonist_viability>  (29) 
0.0

>  <TOX21_HSE_BLA_agonist_ch1>  (29) 
0.0

>  <TOX21_HSE_BLA_agonist_ch2>  (29) 
0.0

>  <TOX21_HSE_BLA_agonist_ratio>  (29) 
0.0

>  <TOX21_HSE_BLA_agonist_viability>  (29) 
0.0

>  <TOX21_LUC_Biochem>  (29) 
0.0

>  <TOX21_MMP_fitc>  (29) 
1.0

>  <TOX21_MMP_ratio_down>  (29) 
1.0

>  <TOX21_MMP_ratio_up>  (29) 
0.0

>  <TOX21_MMP_rhodamine>  (29) 
1.0

>  <TOX21_MMP_viability>  (29) 
0.0

>  <TOX21_NFkB_BLA_agonist_ch1>  (29) 
0.0

>  <TOX21_NFkB_BLA_agonist_ch2>  (29) 
0.0

>  <TOX21_NFkB_BLA_agonist_ratio>  (29) 
0.0

>  <TOX21_NFkB_BLA_agonist_viability>  (29) 
0.0

>  <TOX21_PGC_ERR_Agonist>  (29) 
0.0

>  <TOX21_PGC_ERR_Antagonist>  (29) 
0.0

>  <TOX21_PGC_ERR_viability>  (29) 
0.0

>  <TOX21_PPARd_BLA_Agonist_viability>  (29) 
0.0

>  <TOX21_PPARd_BLA_Antagonist_ch1>  (29) 
0.0

>  <TOX21_PPARd_BLA_Antagonist_ch2>  (29) 
0.0

>  <TOX21_PPARd_BLA_agonist_ch1>  (29) 
0.0

>  <TOX21_PPARd_BLA_agonist_ch2>  (29) 
0.0

>  <TOX21_PPARd_BLA_agonist_ratio>  (29) 
0.0

>  <TOX21_PPARd_BLA_antagonist_ratio>  (29) 
0.0

>  <TOX21_PPARd_BLA_antagonist_viability>  (29) 
0.0

>  <TOX21_PPARg_BLA_Agonist_ch1>  (29) 
0.0

>  <TOX21_PPARg_BLA_Agonist_ch2>  (29) 
1.0

>  <TOX21_PPARg_BLA_Agonist_ratio>  (29) 
0.0

>  <TOX21_PPARg_BLA_Antagonist_ch1>  (29) 
0.0

>  <TOX21_PPARg_BLA_Antagonist_ch2>  (29) 
0.0

>  <TOX21_PPARg_BLA_antagonist_ratio>  (29) 
0.0

>  <TOX21_PPARg_BLA_antagonist_viability>  (29) 
0.0

>  <TOX21_PR_BLA_Agonist_ch1>  (29) 
0.0

>  <TOX21_PR_BLA_Agonist_ch2>  (29) 
0.0

>  <TOX21_PR_BLA_Agonist_ratio>  (29) 
0.0

>  <TOX21_PR_BLA_Antagonist_ch1>  (29) 
1.0

>  <TOX21_PR_BLA_Antagonist_ch2>  (29) 
1.0

>  <TOX21_PR_BLA_Antagonist_ratio>  (29) 
1.0

>  <TOX21_PR_BLA_Antagonist_viability>  (29) 
0.0

>  <TOX21_PR_BLA_Followup_Agonist_ch1>  (29) 
0.0

>  <TOX21_PR_BLA_Followup_Agonist_ch2>  (29) 
0.0

>  <TOX21_PR_BLA_Followup_Agonist_ratio>  (29) 
0.0

>  <TOX21_PR_BLA_Followup_Agonist_viability>  (29) 
0.0

>  <TOX21_PR_BLA_Followup_Antagonist_ch1>  (29) 
1.0

>  <TOX21_PR_BLA_Followup_Antagonist_ch2>  (29) 
0.0

>  <TOX21_PR_BLA_Followup_Antagonist_ratio>  (29) 
1.0

>  <TOX21_PR_BLA_Followup_Antagonist_viability>  (29) 
0.0

>  <TOX21_PR_LUC_Followup_Agonist>  (29) 
1.0

>  <TOX21_PR_LUC_Followup_Agonist_viability>  (29) 
0.0

>  <TOX21_PR_LUC_Followup_Antagonist>  (29) 
0.0

>  <TOX21_PR_LUC_Followup_Antagonist_viability>  (29) 
0.0

>  <TOX21_PXR_Agonist>  (29) 
0.0

>  <TOX21_PXR_viability>  (29) 
1.0

>  <TOX21_RAR_LUC_Agonist>  (29) 
0.0

>  <TOX21_RAR_LUC_Agonist_viability>  (29) 
0.0

>  <TOX21_RAR_LUC_Antagonist_viability>  (29) 
0.0

>  <TOX21_RORg_LUC_CHO_Antagonist>  (29) 
0.0

>  <TOX21_RORg_LUC_CHO_Antagonist_viability>  (29) 
0.0

>  <TOX21_RT_HEK293_FLO_00hr_viability>  (29) 
0.0

>  <TOX21_RT_HEK293_FLO_08hr_viability>  (29) 
1.0

>  <TOX21_RT_HEK293_FLO_16hr_viability>  (29) 
0.0

>  <TOX21_RT_HEK293_FLO_24hr_viability>  (29) 
0.0

>  <TOX21_RT_HEK293_FLO_32hr_viability>  (29) 
0.0

>  <TOX21_RT_HEK293_FLO_40hr_viability>  (29) 
0.0

>  <TOX21_RT_HEK293_GLO_00hr_viability>  (29) 
0.0

>  <TOX21_RT_HEK293_GLO_08hr_viability>  (29) 
1.0

>  <TOX21_RT_HEK293_GLO_16hr_viability>  (29) 
1.0

>  <TOX21_RT_HEK293_GLO_24hr_viability>  (29) 
1.0

>  <TOX21_RT_HEK293_GLO_32hr_viability>  (29) 
1.0

>  <TOX21_RT_HEK293_GLO_40hr_viability>  (29) 
1.0

>  <TOX21_RT_HEPG2_FLO_00hr_ctrl_viability>  (29) 
0.0

>  <TOX21_RT_HEPG2_FLO_08hr_viability>  (29) 
0.0

>  <TOX21_RT_HEPG2_FLO_16hr_ctrl_viability>  (29) 
0.0

>  <TOX21_RT_HEPG2_FLO_24hr_viability>  (29) 
0.0

>  <TOX21_RT_HEPG2_FLO_32hr_ctrl_viability>  (29) 
0.0

>  <TOX21_RT_HEPG2_GLO_00hr_ctrl_viability>  (29) 
1.0

>  <TOX21_RT_HEPG2_GLO_08hr_ctrl_viability>  (29) 
1.0

>  <TOX21_RT_HEPG2_GLO_16hr_ctrl_viability>  (29) 
1.0

>  <TOX21_RT_HEPG2_GLO_24hr_ctrl_viability>  (29) 
0.0

>  <TOX21_RT_HEPG2_GLO_32hr_ctrl_viability>  (29) 
0.0

>  <TOX21_RT_HEPG2_GLO_40hr_viability>  (29) 
0.0

>  <TOX21_RXR_BLA_Agonist_ch1>  (29) 
0.0

>  <TOX21_RXR_BLA_Agonist_ch2>  (29) 
0.0

>  <TOX21_RXR_BLA_Agonist_ratio>  (29) 
0.0

>  <TOX21_RXR_BLA_Agonist_viability>  (29) 
0.0

>  <TOX21_SBE_BLA_Agonist_ch1>  (29) 
0.0

>  <TOX21_SBE_BLA_Agonist_ch2>  (29) 
0.0

>  <TOX21_SBE_BLA_Agonist_ratio>  (29) 
0.0

>  <TOX21_SBE_BLA_Agonist_viability>  (29) 
0.0

>  <TOX21_SBE_BLA_Antagonist_ch1>  (29) 
0.0

>  <TOX21_SBE_BLA_Antagonist_ch2>  (29) 
1.0

>  <TOX21_SBE_BLA_Antagonist_ratio>  (29) 
1.0

>  <TOX21_SBE_BLA_Antagonist_viability>  (29) 
0.0

>  <TOX21_SSH_3T3_GLI3_Agonist>  (29) 
0.0

>  <TOX21_SSH_3T3_GLI3_Agonist_viability>  (29) 
1.0

>  <TOX21_SSH_3T3_GLI3_Antagonist>  (29) 
1.0

>  <TOX21_SSH_3T3_GLI3_Antagonist_viability>  (29) 
1.0

>  <TOX21_TRHR_HEK293_Agonist>  (29) 
0.0

>  <TOX21_TRHR_HEK293_Antagonist>  (29) 
0.0

>  <TOX21_TR_LUC_GH3_Agonist>  (29) 
0.0

>  <TOX21_TR_LUC_GH3_Antagonist>  (29) 
1.0

>  <TOX21_TR_LUC_GH3_Antagonist_viability>  (29) 
1.0

>  <TOX21_TSHR_Agonist_ch2>  (29) 
0.0

>  <TOX21_TSHR_Antagonist_ch2>  (29) 
0.0

>  <TOX21_TSHR_Antagonist_ratio>  (29) 
0.0

>  <TOX21_TSHR_HTRF_Agonist_ch1>  (29) 
0.0

>  <TOX21_TSHR_HTRF_Antagonist_ch1>  (29) 
0.0

>  <TOX21_TSHR_wt_HTRF_ch1>  (29) 
0.0

>  <TOX21_TSHR_wt_ch2>  (29) 
0.0

>  <TOX21_TSHR_wt_ratio>  (29) 
0.0

>  <TOX21_VDR_BLA_Agonist_viability>  (29) 
0.0

>  <TOX21_VDR_BLA_Antagonist_ch1>  (29) 
0.0

>  <TOX21_VDR_BLA_Antagonist_ch2>  (29) 
0.0

>  <TOX21_VDR_BLA_agonist_ch1>  (29) 
0.0

>  <TOX21_VDR_BLA_agonist_ch2>  (29) 
0.0

>  <TOX21_VDR_BLA_agonist_ratio>  (29) 
0.0

>  <TOX21_VDR_BLA_antagonist_ratio>  (29) 
0.0

>  <TOX21_VDR_BLA_antagonist_viability>  (29) 
0.0

>  <TOX21_p53_BLA_p1_ch1>  (29) 
0.0

>  <TOX21_p53_BLA_p1_ch2>  (29) 
0.0

>  <TOX21_p53_BLA_p1_ratio>  (29) 
0.0

>  <TOX21_p53_BLA_p1_viability>  (29) 
0.0

>  <TOX21_p53_BLA_p2_ch1>  (29) 
1.0

>  <TOX21_p53_BLA_p2_ch2>  (29) 
0.0

>  <TOX21_p53_BLA_p2_ratio>  (29) 
0.0

>  <TOX21_p53_BLA_p2_viability>  (29) 
0.0

>  <TOX21_p53_BLA_p3_ch1>  (29) 
1.0

>  <TOX21_p53_BLA_p3_ch2>  (29) 
0.0

>  <TOX21_p53_BLA_p3_ratio>  (29) 
0.0

>  <TOX21_p53_BLA_p4_ch1>  (29) 
1.0

>  <TOX21_p53_BLA_p4_ch2>  (29) 
0.0

>  <TOX21_p53_BLA_p4_ratio>  (29) 
0.0

>  <TOX21_p53_BLA_p4_viability>  (29) 
0.0

>  <TOX21_p53_BLA_p5_ch1>  (29) 
0.0

>  <TOX21_p53_BLA_p5_ch2>  (29) 
0.0

>  <TOX21_p53_BLA_p5_ratio>  (29) 
0.0

>  <TOX21_p53_BLA_p5_viability>  (29) 
0.0

>  <UPITT_HCI_U2OS_AR_TIF2_Nucleoli_Agonist>  (29) 
0.0

>  <UPITT_HCI_U2OS_AR_TIF2_Nucleoli_Antagonist>  (29) 
1.0

>  <UPITT_HCI_U2OS_AR_TIF2_Nucleoli_Cytoplasm_Ratio_Agonist>  (29) 
0.0

>  <UPITT_HCI_U2OS_AR_TIF2_Nucleoli_Cytoplasm_Ratio_Antagonist>  (29) 
1.0

>  <NVS_NR_mERa>  (29) 
1.0

$$$$

     RDKit          3D

 20 20  0  0  0  0  0  0  0  0999 V2000
    0.0000    0.0000    0.0000 C   0  0  0  0  0  0  0  0  0  0  0  0
    0.0000    0.0000    0.0000 C   0  0  0  0  0  0  0  0  0  0  0  0
    0.0000    0.0000    0.0000 C   0  0  0  0  0  0  0  0  0  0  0  0
    0.0000    0.0000    0.0000 C   0  0  0  0  0  0  0  0  0  0  0  0
    0.0000    0.0000    0.0000 O   0  0  0  0  0  0  0  0  0  0  0  0
    0.0000    0.0000    0.0000 C   0  0  0  0  0  0  0  0  0  0  0  0
    0.0000    0.0000    0.0000 O   0  0  0  0  0  0  0  0  0  0  0  0
    0.0000    0.0000    0.0000 C   0  0  0  0  0  0  0  0  0  0  0  0
    0.0000    0.0000    0.0000 C   0  0  0  0  0  0  0  0  0  0  0  0
    0.0000    0.0000    0.0000 C   0  0  0  0  0  0  0  0  0  0  0  0
    0.0000    0.0000    0.0000 C   0  0  0  0  0  0  0  0  0  0  0  0
    0.0000    0.0000    0.0000 C   0  0  0  0  0  0  0  0  0  0  0  0
    0.0000    0.0000    0.0000 C   0  0  0  0  0  0  0  0  0  0  0  0
    0.0000    0.0000    0.0000 C   0  0  0  0  0  0  0  0  0  0  0  0
    0.0000    0.0000    0.0000 O   0  0  0  0  0  0  0  0  0  0  0  0
    0.0000    0.0000    0.0000 O   0  0  0  0  0  0  0  0  0  0  0  0
    0.0000    0.0000    0.0000 C   0  0  0  0  0  0  0  0  0  0  0  0
    0.0000    0.0000    0.0000 C   0  0  0  0  0  0  0  0  0  0  0  0
    0.0000    0.0000    0.0000 C   0  0  0  0  0  0  0  0  0  0  0  0
    0.0000    0.0000    0.0000 C   0  0  0  0  0  0  0  0  0  0  0  0
  1  2  1  0
  2  3  1  0
  3  4  1  0
  4  5  1  0
  5  6  1  0
  6  7  2  0
  6  8  1  0
  8  9  2  0
  9 10  1  0
 10 11  2  0
 11 12  1  0
 12 13  2  0
 13 14  1  0
 14 15  2  0
 14 16  1  0
 16 17  1  0
 17 18  1  0
 18 19  1  0
 19 20  1  0
 13  8  1  0
M  END
>  <CASRN>  (30) 
84-74-2

>  <Name>  (30) 
Dibutyl phthalate

>  <Active>  (30) 
0

>  <Inactive>  (30) 
2

>  <Bioactivity>  (30) 
Inactive

>  <Min LEL>  (30) 
nan

>  <Max HDT>  (30) 
1000.0

>  <Class>  (30) 
0

>  <Code>  (30) 
C84742

>  <NVS_NR_hER>  (30) 
0.0

>  <NVS_NR_cAR>  (30) 
0.0

>  <NVS_NR_hAR>  (30) 
0.0

>  <NVS_NR_hGR>  (30) 
1.0

>  <NVS_NR_hPR>  (30) 
0.0

>  <NVS_NR_rAR>  (30) 
0.0

>  <OT_ER_ERaERb_1440>  (30) 
1.0

>  <OT_FXR_FXRSRC1_0480>  (30) 
1.0

>  <OT_PPARg_PPARgSRC1_1440>  (30) 
0.0

>  <OT_FXR_FXRSRC1_1440>  (30) 
0.0

>  <OT_NURR1_NURR1RXRa_0480>  (30) 
0.0

>  <OT_NURR1_NURR1RXRa_1440>  (30) 
0.0

>  <OT_PPARg_PPARgSRC1_0480>  (30) 
0.0

>  <OT_AR_ARELUC_AG_1440>  (30) 
0.0

>  <OT_ERa_EREGFP_0120>  (30) 
1.0

>  <BSK_3C_HLADR_down>  (30) 
0.0

>  <BSK_3C_Vis_down>  (30) 
0.0

>  <BSK_3C_uPAR_down>  (30) 
0.0

>  <ATG_CAR_TRANS_up>  (30) 
0.0

>  <ATG_E2F_CIS_dn>  (30) 
0.0

>  <ATG_EGR_CIS_up>  (30) 
0.0

>  <ATG_ERa_TRANS_dn>  (30) 
0.0

>  <ATG_ERa_TRANS_up>  (30) 
0.0

>  <ATG_FXR_TRANS_dn>  (30) 
0.0

>  <ATG_GLI_CIS_dn>  (30) 
0.0

>  <ATG_GRE_CIS_up>  (30) 
0.0

>  <ATG_LXRa_TRANS_dn>  (30) 
0.0

>  <ATG_LXRa_TRANS_up>  (30) 
0.0

>  <ATG_NRF1_CIS_up>  (30) 
0.0

>  <ATG_NURR1_TRANS_up>  (30) 
0.0

>  <ATG_Sox_CIS_dn>  (30) 
0.0

>  <ATG_Sox_CIS_up>  (30) 
0.0

>  <ATG_Sp1_CIS_up>  (30) 
0.0

>  <ATG_TGFb_CIS_up>  (30) 
0.0

>  <TOX21_ARE_BLA_agonist_ratio>  (30) 
0.0

>  <TOX21_RAR_LUC_Antagonist>  (30) 
0.0

>  <ATG_LXRb_TRANS_dn>  (30) 
0.0

>  <ATG_CAR_TRANS_dn>  (30) 
0.0

>  <ATG_BRE_CIS_dn>  (30) 
0.0

>  <ATG_E2F_CIS_up>  (30) 
0.0

>  <TOX21_TSHR_Agonist_ratio>  (30) 
0.0

>  <ACEA_ER_80hr>  (30) 
0.0

>  <TOX21_CAR_Agonist_viabillity>  (30) 
0.0

>  <TOX21_PR_BLA_Agonist_viability>  (30) 
0.0

>  <TOX21_RT_HEPG2_FLO_40hr_ctrl_viability>  (30) 
1.0

>  <TOX21_AhR_LUC_Agonist_viability>  (30) 
0.0

>  <TOX21_ERR_viability>  (30) 
0.0

>  <TOX21_p53_BLA_p3_viability>  (30) 
0.0

>  <NVS_NR_bER>  (30) 
0.0

>  <ACEA_AR_agonist_80hr>  (30) 
0.0

>  <ACEA_AR_agonist_AUC_viability>  (30) 
1.0

>  <ACEA_AR_antagonist_80hr>  (30) 
1.0

>  <ACEA_AR_antagonist_AUC_viability>  (30) 
1.0

>  <ACEA_ER_AUC_viability>  (30) 
1.0

>  <APR_HepG2_CellCycleArrest_1h_dn>  (30) 
0.0

>  <APR_HepG2_CellCycleArrest_1h_up>  (30) 
0.0

>  <APR_HepG2_CellCycleArrest_24h_dn>  (30) 
0.0

>  <APR_HepG2_CellCycleArrest_24h_up>  (30) 
0.0

>  <APR_HepG2_CellCycleArrest_72h_dn>  (30) 
0.0

>  <APR_HepG2_CellCycleArrest_72h_up>  (30) 
0.0

>  <APR_HepG2_CellLoss_1h_dn>  (30) 
0.0

>  <APR_HepG2_CellLoss_1h_up>  (30) 
0.0

>  <APR_HepG2_CellLoss_24h_dn>  (30) 
0.0

>  <APR_HepG2_CellLoss_24h_up>  (30) 
0.0

>  <APR_HepG2_CellLoss_72h_dn>  (30) 
0.0

>  <APR_HepG2_CellLoss_72h_up>  (30) 
0.0

>  <APR_HepG2_MicrotubuleCSK_1h_dn>  (30) 
0.0

>  <APR_HepG2_MicrotubuleCSK_1h_up>  (30) 
0.0

>  <APR_HepG2_MicrotubuleCSK_24h_dn>  (30) 
0.0

>  <APR_HepG2_MicrotubuleCSK_24h_up>  (30) 
0.0

>  <APR_HepG2_MicrotubuleCSK_72h_dn>  (30) 
0.0

>  <APR_HepG2_MicrotubuleCSK_72h_up>  (30) 
0.0

>  <APR_HepG2_MitoMass_1h_dn>  (30) 
0.0

>  <APR_HepG2_MitoMass_1h_up>  (30) 
0.0

>  <APR_HepG2_MitoMass_24h_dn>  (30) 
0.0

>  <APR_HepG2_MitoMass_24h_up>  (30) 
0.0

>  <APR_HepG2_MitoMass_72h_dn>  (30) 
0.0

>  <APR_HepG2_MitoMass_72h_up>  (30) 
0.0

>  <APR_HepG2_MitoMembPot_1h_dn>  (30) 
0.0

>  <APR_HepG2_MitoMembPot_1h_up>  (30) 
0.0

>  <APR_HepG2_MitoMembPot_24h_dn>  (30) 
0.0

>  <APR_HepG2_MitoMembPot_24h_up>  (30) 
0.0

>  <APR_HepG2_MitoMembPot_72h_dn>  (30) 
0.0

>  <APR_HepG2_MitoMembPot_72h_up>  (30) 
0.0

>  <APR_HepG2_MitoticArrest_1h_dn>  (30) 
0.0

>  <APR_HepG2_MitoticArrest_1h_up>  (30) 
0.0

>  <APR_HepG2_MitoticArrest_24h_dn>  (30) 
0.0

>  <APR_HepG2_MitoticArrest_24h_up>  (30) 
0.0

>  <APR_HepG2_MitoticArrest_72h_dn>  (30) 
0.0

>  <APR_HepG2_MitoticArrest_72h_up>  (30) 
0.0

>  <APR_HepG2_NuclearSize_1h_dn>  (30) 
0.0

>  <APR_HepG2_NuclearSize_1h_up>  (30) 
0.0

>  <APR_HepG2_NuclearSize_24h_dn>  (30) 
0.0

>  <APR_HepG2_NuclearSize_24h_up>  (30) 
0.0

>  <APR_HepG2_NuclearSize_72h_dn>  (30) 
0.0

>  <APR_HepG2_NuclearSize_72h_up>  (30) 
0.0

>  <APR_HepG2_OxidativeStress_1h_dn>  (30) 
0.0

>  <APR_HepG2_OxidativeStress_1h_up>  (30) 
0.0

>  <APR_HepG2_OxidativeStress_24h_dn>  (30) 
0.0

>  <APR_HepG2_OxidativeStress_24h_up>  (30) 
0.0

>  <APR_HepG2_OxidativeStress_72h_dn>  (30) 
0.0

>  <APR_HepG2_OxidativeStress_72h_up>  (30) 
0.0

>  <APR_HepG2_StressKinase_1h_dn>  (30) 
0.0

>  <APR_HepG2_StressKinase_1h_up>  (30) 
0.0

>  <APR_HepG2_StressKinase_24h_dn>  (30) 
0.0

>  <APR_HepG2_StressKinase_24h_up>  (30) 
0.0

>  <APR_HepG2_StressKinase_72h_dn>  (30) 
0.0

>  <APR_HepG2_StressKinase_72h_up>  (30) 
0.0

>  <APR_HepG2_p53Act_1h_dn>  (30) 
0.0

>  <APR_HepG2_p53Act_1h_up>  (30) 
0.0

>  <APR_HepG2_p53Act_24h_dn>  (30) 
0.0

>  <APR_HepG2_p53Act_24h_up>  (30) 
0.0

>  <APR_HepG2_p53Act_72h_dn>  (30) 
0.0

>  <APR_HepG2_p53Act_72h_up>  (30) 
0.0

>  <APR_Hepat_Apoptosis_1hr_dn>  (30) 
0.0

>  <APR_Hepat_Apoptosis_1hr_up>  (30) 
0.0

>  <APR_Hepat_Apoptosis_24hr_dn>  (30) 
0.0

>  <APR_Hepat_Apoptosis_24hr_up>  (30) 
0.0

>  <APR_Hepat_Apoptosis_48hr_dn>  (30) 
0.0

>  <APR_Hepat_Apoptosis_48hr_up>  (30) 
0.0

>  <APR_Hepat_CellLoss_1hr_dn>  (30) 
0.0

>  <APR_Hepat_CellLoss_1hr_up>  (30) 
0.0

>  <APR_Hepat_CellLoss_24hr_dn>  (30) 
0.0

>  <APR_Hepat_CellLoss_24hr_up>  (30) 
0.0

>  <APR_Hepat_CellLoss_48hr_dn>  (30) 
0.0

>  <APR_Hepat_CellLoss_48hr_up>  (30) 
0.0

>  <APR_Hepat_DNADamage_1hr_dn>  (30) 
0.0

>  <APR_Hepat_DNADamage_1hr_up>  (30) 
0.0

>  <APR_Hepat_DNADamage_24hr_dn>  (30) 
0.0

>  <APR_Hepat_DNADamage_24hr_up>  (30) 
0.0

>  <APR_Hepat_DNADamage_48hr_dn>  (30) 
0.0

>  <APR_Hepat_DNADamage_48hr_up>  (30) 
0.0

>  <APR_Hepat_DNATexture_1hr_dn>  (30) 
0.0

>  <APR_Hepat_DNATexture_1hr_up>  (30) 
0.0

>  <APR_Hepat_DNATexture_24hr_dn>  (30) 
0.0

>  <APR_Hepat_DNATexture_24hr_up>  (30) 
0.0

>  <APR_Hepat_DNATexture_48hr_dn>  (30) 
0.0

>  <APR_Hepat_DNATexture_48hr_up>  (30) 
0.0

>  <APR_Hepat_LysosomalMass_1hr_dn>  (30) 
0.0

>  <APR_Hepat_LysosomalMass_1hr_up>  (30) 
0.0

>  <APR_Hepat_LysosomalMass_24hr_dn>  (30) 
0.0

>  <APR_Hepat_LysosomalMass_24hr_up>  (30) 
0.0

>  <APR_Hepat_LysosomalMass_48hr_dn>  (30) 
0.0

>  <APR_Hepat_LysosomalMass_48hr_up>  (30) 
0.0

>  <APR_Hepat_MitoFxnI_1hr_dn>  (30) 
0.0

>  <APR_Hepat_MitoFxnI_1hr_up>  (30) 
0.0

>  <APR_Hepat_MitoFxnI_24hr_dn>  (30) 
0.0

>  <APR_Hepat_MitoFxnI_24hr_up>  (30) 
0.0

>  <APR_Hepat_MitoFxnI_48hr_dn>  (30) 
0.0

>  <APR_Hepat_MitoFxnI_48hr_up>  (30) 
1.0

>  <APR_Hepat_NuclearSize_1hr_dn>  (30) 
0.0

>  <APR_Hepat_NuclearSize_1hr_up>  (30) 
0.0

>  <APR_Hepat_NuclearSize_24hr_dn>  (30) 
0.0

>  <APR_Hepat_NuclearSize_24hr_up>  (30) 
0.0

>  <APR_Hepat_NuclearSize_48hr_dn>  (30) 
0.0

>  <APR_Hepat_NuclearSize_48hr_up>  (30) 
0.0

>  <APR_Hepat_Steatosis_1hr_dn>  (30) 
0.0

>  <APR_Hepat_Steatosis_1hr_up>  (30) 
0.0

>  <APR_Hepat_Steatosis_24hr_dn>  (30) 
0.0

>  <APR_Hepat_Steatosis_24hr_up>  (30) 
0.0

>  <APR_Hepat_Steatosis_48hr_dn>  (30) 
0.0

>  <APR_Hepat_Steatosis_48hr_up>  (30) 
0.0

>  <ATG_AP_1_CIS_dn>  (30) 
0.0

>  <ATG_AP_1_CIS_up>  (30) 
1.0

>  <ATG_AP_2_CIS_dn>  (30) 
0.0

>  <ATG_AP_2_CIS_up>  (30) 
0.0

>  <ATG_AR_TRANS_dn>  (30) 
0.0

>  <ATG_AR_TRANS_up>  (30) 
0.0

>  <ATG_Ahr_CIS_dn>  (30) 
0.0

>  <ATG_Ahr_CIS_up>  (30) 
0.0

>  <ATG_BRE_CIS_up>  (30) 
0.0

>  <ATG_CMV_CIS_dn>  (30) 
0.0

>  <ATG_CMV_CIS_up>  (30) 
0.0

>  <ATG_CRE_CIS_dn>  (30) 
0.0

>  <ATG_CRE_CIS_up>  (30) 
0.0

>  <ATG_C_EBP_CIS_dn>  (30) 
0.0

>  <ATG_C_EBP_CIS_up>  (30) 
0.0

>  <ATG_DR4_LXR_CIS_dn>  (30) 
0.0

>  <ATG_DR4_LXR_CIS_up>  (30) 
0.0

>  <ATG_DR5_CIS_dn>  (30) 
0.0

>  <ATG_DR5_CIS_up>  (30) 
0.0

>  <ATG_EGR_CIS_dn>  (30) 
0.0

>  <ATG_ERE_CIS_dn>  (30) 
0.0

>  <ATG_ERE_CIS_up>  (30) 
1.0

>  <ATG_ERRa_TRANS_dn>  (30) 
0.0

>  <ATG_ERRa_TRANS_up>  (30) 
0.0

>  <ATG_ERRg_TRANS_dn>  (30) 
0.0

>  <ATG_ERRg_TRANS_up>  (30) 
0.0

>  <ATG_E_Box_CIS_dn>  (30) 
0.0

>  <ATG_E_Box_CIS_up>  (30) 
0.0

>  <ATG_Ets_CIS_dn>  (30) 
0.0

>  <ATG_Ets_CIS_up>  (30) 
0.0

>  <ATG_FXR_TRANS_up>  (30) 
0.0

>  <ATG_FoxA2_CIS_dn>  (30) 
0.0

>  <ATG_FoxA2_CIS_up>  (30) 
0.0

>  <ATG_FoxO_CIS_dn>  (30) 
0.0

>  <ATG_FoxO_CIS_up>  (30) 
0.0

>  <ATG_GAL4_TRANS_dn>  (30) 
0.0

>  <ATG_GAL4_TRANS_up>  (30) 
0.0

>  <ATG_GATA_CIS_dn>  (30) 
0.0

>  <ATG_GATA_CIS_up>  (30) 
0.0

>  <ATG_GLI_CIS_up>  (30) 
0.0

>  <ATG_GRE_CIS_dn>  (30) 
0.0

>  <ATG_GR_TRANS_dn>  (30) 
0.0

>  <ATG_GR_TRANS_up>  (30) 
0.0

>  <ATG_HIF1a_CIS_dn>  (30) 
0.0

>  <ATG_HIF1a_CIS_up>  (30) 
0.0

>  <ATG_HNF4a_TRANS_dn>  (30) 
0.0

>  <ATG_HNF4a_TRANS_up>  (30) 
0.0

>  <ATG_HNF6_CIS_dn>  (30) 
0.0

>  <ATG_HNF6_CIS_up>  (30) 
0.0

>  <ATG_HSE_CIS_dn>  (30) 
0.0

>  <ATG_HSE_CIS_up>  (30) 
0.0

>  <ATG_Hpa5_TRANS_dn>  (30) 
0.0

>  <ATG_Hpa5_TRANS_up>  (30) 
0.0

>  <ATG_IR1_CIS_dn>  (30) 
0.0

>  <ATG_IR1_CIS_up>  (30) 
0.0

>  <ATG_ISRE_CIS_dn>  (30) 
0.0

>  <ATG_ISRE_CIS_up>  (30) 
0.0

>  <ATG_LXRb_TRANS_up>  (30) 
0.0

>  <ATG_MRE_CIS_dn>  (30) 
0.0

>  <ATG_MRE_CIS_up>  (30) 
0.0

>  <ATG_M_06_CIS_dn>  (30) 
0.0

>  <ATG_M_06_CIS_up>  (30) 
0.0

>  <ATG_M_06_TRANS_dn>  (30) 
0.0

>  <ATG_M_06_TRANS_up>  (30) 
0.0

>  <ATG_M_19_CIS_dn>  (30) 
0.0

>  <ATG_M_19_CIS_up>  (30) 
0.0

>  <ATG_M_19_TRANS_dn>  (30) 
0.0

>  <ATG_M_19_TRANS_up>  (30) 
0.0

>  <ATG_M_32_CIS_dn>  (30) 
0.0

>  <ATG_M_32_CIS_up>  (30) 
0.0

>  <ATG_M_32_TRANS_dn>  (30) 
0.0

>  <ATG_M_32_TRANS_up>  (30) 
0.0

>  <ATG_M_61_CIS_dn>  (30) 
0.0

>  <ATG_M_61_CIS_up>  (30) 
0.0

>  <ATG_M_61_TRANS_dn>  (30) 
0.0

>  <ATG_M_61_TRANS_up>  (30) 
0.0

>  <ATG_Myb_CIS_dn>  (30) 
0.0

>  <ATG_Myb_CIS_up>  (30) 
0.0

>  <ATG_Myc_CIS_dn>  (30) 
0.0

>  <ATG_Myc_CIS_up>  (30) 
0.0

>  <ATG_NFI_CIS_dn>  (30) 
0.0

>  <ATG_NFI_CIS_up>  (30) 
0.0

>  <ATG_NF_kB_CIS_dn>  (30) 
0.0

>  <ATG_NF_kB_CIS_up>  (30) 
0.0

>  <ATG_NRF1_CIS_dn>  (30) 
0.0

>  <ATG_NRF2_ARE_CIS_dn>  (30) 
0.0

>  <ATG_NRF2_ARE_CIS_up>  (30) 
1.0

>  <ATG_NURR1_TRANS_dn>  (30) 
0.0

>  <ATG_Oct_MLP_CIS_dn>  (30) 
0.0

>  <ATG_Oct_MLP_CIS_up>  (30) 
0.0

>  <ATG_PBREM_CIS_dn>  (30) 
0.0

>  <ATG_PBREM_CIS_up>  (30) 
1.0

>  <ATG_PPARa_TRANS_dn>  (30) 
0.0

>  <ATG_PPARa_TRANS_up>  (30) 
0.0

>  <ATG_PPARd_TRANS_dn>  (30) 
0.0

>  <ATG_PPARd_TRANS_up>  (30) 
0.0

>  <ATG_PPARg_TRANS_dn>  (30) 
0.0

>  <ATG_PPARg_TRANS_up>  (30) 
0.0

>  <ATG_PPRE_CIS_dn>  (30) 
0.0

>  <ATG_PPRE_CIS_up>  (30) 
1.0

>  <ATG_PXRE_CIS_dn>  (30) 
0.0

>  <ATG_PXRE_CIS_up>  (30) 
1.0

>  <ATG_PXR_TRANS_dn>  (30) 
0.0

>  <ATG_PXR_TRANS_up>  (30) 
1.0

>  <ATG_Pax6_CIS_dn>  (30) 
0.0

>  <ATG_Pax6_CIS_up>  (30) 
0.0

>  <ATG_RARa_TRANS_dn>  (30) 
0.0

>  <ATG_RARa_TRANS_up>  (30) 
0.0

>  <ATG_RARb_TRANS_dn>  (30) 
0.0

>  <ATG_RARb_TRANS_up>  (30) 
0.0

>  <ATG_RARg_TRANS_dn>  (30) 
0.0

>  <ATG_RARg_TRANS_up>  (30) 
0.0

>  <ATG_RORE_CIS_dn>  (30) 
0.0

>  <ATG_RORE_CIS_up>  (30) 
0.0

>  <ATG_RORb_TRANS_dn>  (30) 
0.0

>  <ATG_RORb_TRANS_up>  (30) 
0.0

>  <ATG_RORg_TRANS_dn>  (30) 
0.0

>  <ATG_RORg_TRANS_up>  (30) 
0.0

>  <ATG_RXRa_TRANS_dn>  (30) 
0.0

>  <ATG_RXRa_TRANS_up>  (30) 
0.0

>  <ATG_RXRb_TRANS_dn>  (30) 
0.0

>  <ATG_RXRb_TRANS_up>  (30) 
1.0

>  <ATG_SREBP_CIS_dn>  (30) 
0.0

>  <ATG_SREBP_CIS_up>  (30) 
0.0

>  <ATG_STAT3_CIS_dn>  (30) 
0.0

>  <ATG_STAT3_CIS_up>  (30) 
0.0

>  <ATG_Sp1_CIS_dn>  (30) 
0.0

>  <ATG_TAL_CIS_dn>  (30) 
0.0

>  <ATG_TAL_CIS_up>  (30) 
0.0

>  <ATG_TA_CIS_dn>  (30) 
0.0

>  <ATG_TA_CIS_up>  (30) 
0.0

>  <ATG_TCF_b_cat_CIS_dn>  (30) 
0.0

>  <ATG_TCF_b_cat_CIS_up>  (30) 
0.0

>  <ATG_TGFb_CIS_dn>  (30) 
0.0

>  <ATG_THRa1_TRANS_dn>  (30) 
0.0

>  <ATG_THRa1_TRANS_up>  (30) 
1.0

>  <ATG_VDRE_CIS_dn>  (30) 
0.0

>  <ATG_VDRE_CIS_up>  (30) 
1.0

>  <ATG_VDR_TRANS_dn>  (30) 
0.0

>  <ATG_VDR_TRANS_up>  (30) 
0.0

>  <ATG_XTT_Cytotoxicity_up>  (30) 
0.0

>  <ATG_Xbp1_CIS_dn>  (30) 
0.0

>  <ATG_Xbp1_CIS_up>  (30) 
0.0

>  <ATG_p53_CIS_dn>  (30) 
0.0

>  <ATG_p53_CIS_up>  (30) 
0.0

>  <BSK_3C_Eselectin_down>  (30) 
0.0

>  <BSK_3C_Eselectin_up>  (30) 
0.0

>  <BSK_3C_HLADR_up>  (30) 
0.0

>  <BSK_3C_ICAM1_down>  (30) 
0.0

>  <BSK_3C_ICAM1_up>  (30) 
0.0

>  <BSK_3C_IL8_down>  (30) 
0.0

>  <BSK_3C_IL8_up>  (30) 
0.0

>  <BSK_3C_MCP1_down>  (30) 
0.0

>  <BSK_3C_MCP1_up>  (30) 
0.0

>  <BSK_3C_MIG_down>  (30) 
0.0

>  <BSK_3C_MIG_up>  (30) 
0.0

>  <BSK_3C_Proliferation_down>  (30) 
1.0

>  <BSK_3C_Proliferation_up>  (30) 
0.0

>  <BSK_3C_SRB_down>  (30) 
1.0

>  <BSK_3C_SRB_up>  (30) 
0.0

>  <BSK_3C_Thrombomodulin_down>  (30) 
0.0

>  <BSK_3C_Thrombomodulin_up>  (30) 
0.0

>  <BSK_3C_TissueFactor_down>  (30) 
0.0

>  <BSK_3C_TissueFactor_up>  (30) 
0.0

>  <BSK_3C_VCAM1_down>  (30) 
0.0

>  <BSK_3C_VCAM1_up>  (30) 
0.0

>  <BSK_3C_Vis_up>  (30) 
0.0

>  <BSK_3C_uPAR_up>  (30) 
0.0

>  <BSK_4H_Eotaxin3_down>  (30) 
0.0

>  <BSK_4H_Eotaxin3_up>  (30) 
0.0

>  <BSK_4H_MCP1_down>  (30) 
1.0

>  <BSK_4H_MCP1_up>  (30) 
0.0

>  <BSK_4H_Pselectin_down>  (30) 
0.0

>  <BSK_4H_Pselectin_up>  (30) 
0.0

>  <BSK_4H_SRB_down>  (30) 
1.0

>  <BSK_4H_SRB_up>  (30) 
0.0

>  <BSK_4H_VCAM1_down>  (30) 
1.0

>  <BSK_4H_VCAM1_up>  (30) 
0.0

>  <BSK_4H_VEGFRII_down>  (30) 
0.0

>  <BSK_4H_VEGFRII_up>  (30) 
0.0

>  <BSK_4H_uPAR_down>  (30) 
0.0

>  <BSK_4H_uPAR_up>  (30) 
0.0

>  <BSK_BE3C_HLADR_down>  (30) 
0.0

>  <BSK_BE3C_HLADR_up>  (30) 
0.0

>  <BSK_BE3C_IL1a_down>  (30) 
0.0

>  <BSK_BE3C_IL1a_up>  (30) 
0.0

>  <BSK_BE3C_IP10_down>  (30) 
0.0

>  <BSK_BE3C_IP10_up>  (30) 
0.0

>  <BSK_BE3C_MIG_down>  (30) 
0.0

>  <BSK_BE3C_MIG_up>  (30) 
0.0

>  <BSK_BE3C_MMP1_down>  (30) 
0.0

>  <BSK_BE3C_MMP1_up>  (30) 
0.0

>  <BSK_BE3C_PAI1_down>  (30) 
0.0

>  <BSK_BE3C_PAI1_up>  (30) 
0.0

>  <BSK_BE3C_SRB_down>  (30) 
0.0

>  <BSK_BE3C_SRB_up>  (30) 
0.0

>  <BSK_BE3C_TGFb1_down>  (30) 
0.0

>  <BSK_BE3C_TGFb1_up>  (30) 
0.0

>  <BSK_BE3C_tPA_down>  (30) 
1.0

>  <BSK_BE3C_tPA_up>  (30) 
0.0

>  <BSK_BE3C_uPAR_down>  (30) 
0.0

>  <BSK_BE3C_uPAR_up>  (30) 
0.0

>  <BSK_BE3C_uPA_down>  (30) 
0.0

>  <BSK_BE3C_uPA_up>  (30) 
0.0

>  <BSK_CASM3C_HLADR_down>  (30) 
0.0

>  <BSK_CASM3C_HLADR_up>  (30) 
0.0

>  <BSK_CASM3C_IL6_down>  (30) 
0.0

>  <BSK_CASM3C_IL6_up>  (30) 
0.0

>  <BSK_CASM3C_IL8_down>  (30) 
0.0

>  <BSK_CASM3C_IL8_up>  (30) 
0.0

>  <BSK_CASM3C_LDLR_down>  (30) 
0.0

>  <BSK_CASM3C_LDLR_up>  (30) 
0.0

>  <BSK_CASM3C_MCP1_down>  (30) 
0.0

>  <BSK_CASM3C_MCP1_up>  (30) 
0.0

>  <BSK_CASM3C_MCSF_down>  (30) 
1.0

>  <BSK_CASM3C_MCSF_up>  (30) 
0.0

>  <BSK_CASM3C_MIG_down>  (30) 
0.0

>  <BSK_CASM3C_MIG_up>  (30) 
0.0

>  <BSK_CASM3C_Proliferation_down>  (30) 
1.0

>  <BSK_CASM3C_Proliferation_up>  (30) 
0.0

>  <BSK_CASM3C_SAA_down>  (30) 
1.0

>  <BSK_CASM3C_SAA_up>  (30) 
0.0

>  <BSK_CASM3C_SRB_down>  (30) 
0.0

>  <BSK_CASM3C_SRB_up>  (30) 
0.0

>  <BSK_CASM3C_Thrombomodulin_down>  (30) 
0.0

>  <BSK_CASM3C_Thrombomodulin_up>  (30) 
1.0

>  <BSK_CASM3C_TissueFactor_down>  (30) 
0.0

>  <BSK_CASM3C_TissueFactor_up>  (30) 
0.0

>  <BSK_CASM3C_VCAM1_down>  (30) 
0.0

>  <BSK_CASM3C_VCAM1_up>  (30) 
0.0

>  <BSK_CASM3C_uPAR_down>  (30) 
1.0

>  <BSK_CASM3C_uPAR_up>  (30) 
0.0

>  <BSK_KF3CT_ICAM1_down>  (30) 
0.0

>  <BSK_KF3CT_ICAM1_up>  (30) 
0.0

>  <BSK_KF3CT_IL1a_down>  (30) 
0.0

>  <BSK_KF3CT_IL1a_up>  (30) 
0.0

>  <BSK_KF3CT_IP10_down>  (30) 
0.0

>  <BSK_KF3CT_IP10_up>  (30) 
0.0

>  <BSK_KF3CT_MCP1_down>  (30) 
0.0

>  <BSK_KF3CT_MCP1_up>  (30) 
0.0

>  <BSK_KF3CT_MMP9_down>  (30) 
0.0

>  <BSK_KF3CT_MMP9_up>  (30) 
0.0

>  <BSK_KF3CT_SRB_down>  (30) 
0.0

>  <BSK_KF3CT_SRB_up>  (30) 
0.0

>  <BSK_KF3CT_TGFb1_down>  (30) 
0.0

>  <BSK_KF3CT_TGFb1_up>  (30) 
0.0

>  <BSK_KF3CT_TIMP2_down>  (30) 
0.0

>  <BSK_KF3CT_TIMP2_up>  (30) 
0.0

>  <BSK_KF3CT_uPA_down>  (30) 
0.0

>  <BSK_KF3CT_uPA_up>  (30) 
0.0

>  <BSK_LPS_CD40_down>  (30) 
1.0

>  <BSK_LPS_CD40_up>  (30) 
0.0

>  <BSK_LPS_Eselectin_down>  (30) 
0.0

>  <BSK_LPS_Eselectin_up>  (30) 
0.0

>  <BSK_LPS_IL1a_down>  (30) 
0.0

>  <BSK_LPS_IL1a_up>  (30) 
0.0

>  <BSK_LPS_IL8_down>  (30) 
1.0

>  <BSK_LPS_IL8_up>  (30) 
0.0

>  <BSK_LPS_MCP1_down>  (30) 
0.0

>  <BSK_LPS_MCP1_up>  (30) 
0.0

>  <BSK_LPS_MCSF_down>  (30) 
1.0

>  <BSK_LPS_MCSF_up>  (30) 
0.0

>  <BSK_LPS_PGE2_down>  (30) 
1.0

>  <BSK_LPS_PGE2_up>  (30) 
0.0

>  <BSK_LPS_SRB_down>  (30) 
1.0

>  <BSK_LPS_SRB_up>  (30) 
0.0

>  <BSK_LPS_TNFa_down>  (30) 
0.0

>  <BSK_LPS_TNFa_up>  (30) 
0.0

>  <BSK_LPS_TissueFactor_down>  (30) 
0.0

>  <BSK_LPS_TissueFactor_up>  (30) 
0.0

>  <BSK_LPS_VCAM1_down>  (30) 
0.0

>  <BSK_LPS_VCAM1_up>  (30) 
0.0

>  <BSK_SAg_CD38_down>  (30) 
1.0

>  <BSK_SAg_CD38_up>  (30) 
0.0

>  <BSK_SAg_CD40_down>  (30) 
1.0

>  <BSK_SAg_CD40_up>  (30) 
0.0

>  <BSK_SAg_CD69_down>  (30) 
0.0

>  <BSK_SAg_CD69_up>  (30) 
0.0

>  <BSK_SAg_Eselectin_down>  (30) 
1.0

>  <BSK_SAg_Eselectin_up>  (30) 
0.0

>  <BSK_SAg_IL8_down>  (30) 
0.0

>  <BSK_SAg_IL8_up>  (30) 
0.0

>  <BSK_SAg_MCP1_down>  (30) 
0.0

>  <BSK_SAg_MCP1_up>  (30) 
0.0

>  <BSK_SAg_MIG_down>  (30) 
0.0

>  <BSK_SAg_MIG_up>  (30) 
0.0

>  <BSK_SAg_PBMCCytotoxicity_down>  (30) 
0.0

>  <BSK_SAg_PBMCCytotoxicity_up>  (30) 
0.0

>  <BSK_SAg_Proliferation_down>  (30) 
1.0

>  <BSK_SAg_Proliferation_up>  (30) 
0.0

>  <BSK_SAg_SRB_down>  (30) 
1.0

>  <BSK_SAg_SRB_up>  (30) 
0.0

>  <BSK_hDFCGF_CollagenIII_down>  (30) 
1.0

>  <BSK_hDFCGF_CollagenIII_up>  (30) 
0.0

>  <BSK_hDFCGF_EGFR_down>  (30) 
0.0

>  <BSK_hDFCGF_EGFR_up>  (30) 
0.0

>  <BSK_hDFCGF_IL8_down>  (30) 
0.0

>  <BSK_hDFCGF_IL8_up>  (30) 
0.0

>  <BSK_hDFCGF_IP10_down>  (30) 
1.0

>  <BSK_hDFCGF_IP10_up>  (30) 
0.0

>  <BSK_hDFCGF_MCSF_down>  (30) 
1.0

>  <BSK_hDFCGF_MCSF_up>  (30) 
0.0

>  <BSK_hDFCGF_MIG_down>  (30) 
0.0

>  <BSK_hDFCGF_MIG_up>  (30) 
0.0

>  <BSK_hDFCGF_MMP1_down>  (30) 
0.0

>  <BSK_hDFCGF_MMP1_up>  (30) 
0.0

>  <BSK_hDFCGF_PAI1_down>  (30) 
0.0

>  <BSK_hDFCGF_PAI1_up>  (30) 
0.0

>  <BSK_hDFCGF_Proliferation_down>  (30) 
0.0

>  <BSK_hDFCGF_Proliferation_up>  (30) 
0.0

>  <BSK_hDFCGF_SRB_down>  (30) 
0.0

>  <BSK_hDFCGF_SRB_up>  (30) 
0.0

>  <BSK_hDFCGF_TIMP1_down>  (30) 
0.0

>  <BSK_hDFCGF_TIMP1_up>  (30) 
0.0

>  <BSK_hDFCGF_VCAM1_down>  (30) 
1.0

>  <BSK_hDFCGF_VCAM1_up>  (30) 
0.0

>  <CEETOX_H295R_11DCORT_noMTC_dn>  (30) 
0.0

>  <CEETOX_H295R_11DCORT_noMTC_up>  (30) 
0.0

>  <CEETOX_H295R_ANDR_noMTC_dn>  (30) 
0.0

>  <CEETOX_H295R_ANDR_noMTC_up>  (30) 
0.0

>  <CEETOX_H295R_CORTIC_noMTC_dn>  (30) 
0.0

>  <CEETOX_H295R_CORTIC_noMTC_up>  (30) 
0.0

>  <CEETOX_H295R_CORTISOL_noMTC_dn>  (30) 
0.0

>  <CEETOX_H295R_CORTISOL_noMTC_up>  (30) 
0.0

>  <CEETOX_H295R_DOC_noMTC_dn>  (30) 
0.0

>  <CEETOX_H295R_DOC_noMTC_up>  (30) 
0.0

>  <CEETOX_H295R_ESTRADIOL_noMTC_dn>  (30) 
0.0

>  <CEETOX_H295R_ESTRADIOL_noMTC_up>  (30) 
0.0

>  <CEETOX_H295R_ESTRONE_noMTC_dn>  (30) 
0.0

>  <CEETOX_H295R_ESTRONE_noMTC_up>  (30) 
0.0

>  <CEETOX_H295R_MTT_cell_viability_dn>  (30) 
0.0

>  <CEETOX_H295R_MTT_cell_viability_up>  (30) 
0.0

>  <CEETOX_H295R_OHPREG_noMTC_dn>  (30) 
0.0

>  <CEETOX_H295R_OHPREG_noMTC_up>  (30) 
0.0

>  <CEETOX_H295R_OHPROG_noMTC_dn>  (30) 
0.0

>  <CEETOX_H295R_OHPROG_noMTC_up>  (30) 
0.0

>  <CEETOX_H295R_PROG_noMTC_dn>  (30) 
0.0

>  <CEETOX_H295R_PROG_noMTC_up>  (30) 
0.0

>  <CEETOX_H295R_TESTO_noMTC_dn>  (30) 
0.0

>  <CEETOX_H295R_TESTO_noMTC_up>  (30) 
0.0

>  <CLD_ABCB11_24hr>  (30) 
0.0

>  <CLD_ABCB11_48hr>  (30) 
0.0

>  <CLD_ABCB11_6hr>  (30) 
0.0

>  <CLD_ABCB1_24hr>  (30) 
0.0

>  <CLD_ABCB1_48hr>  (30) 
0.0

>  <CLD_ABCB1_6hr>  (30) 
0.0

>  <CLD_ABCG2_24hr>  (30) 
0.0

>  <CLD_ABCG2_48hr>  (30) 
0.0

>  <CLD_ABCG2_6hr>  (30) 
0.0

>  <CLD_ACTIN_24hr>  (30) 
0.0

>  <CLD_ACTIN_48hr>  (30) 
0.0

>  <CLD_ACTIN_6hr>  (30) 
0.0

>  <CLD_CYP1A1_24hr>  (30) 
1.0

>  <CLD_CYP1A1_48hr>  (30) 
0.0

>  <CLD_CYP1A1_6hr>  (30) 
1.0

>  <CLD_CYP1A2_24hr>  (30) 
1.0

>  <CLD_CYP1A2_48hr>  (30) 
1.0

>  <CLD_CYP1A2_6hr>  (30) 
1.0

>  <CLD_CYP2B6_24hr>  (30) 
1.0

>  <CLD_CYP2B6_48hr>  (30) 
0.0

>  <CLD_CYP2B6_6hr>  (30) 
0.0

>  <CLD_CYP2C19_24hr>  (30) 
0.0

>  <CLD_CYP2C19_48hr>  (30) 
0.0

>  <CLD_CYP2C19_6hr>  (30) 
0.0

>  <CLD_CYP2C9_24hr>  (30) 
0.0

>  <CLD_CYP2C9_48hr>  (30) 
0.0

>  <CLD_CYP2C9_6hr>  (30) 
0.0

>  <CLD_CYP3A4_24hr>  (30) 
0.0

>  <CLD_CYP3A4_48hr>  (30) 
0.0

>  <CLD_CYP3A4_6hr>  (30) 
0.0

>  <CLD_GAPDH_24hr>  (30) 
0.0

>  <CLD_GAPDH_48hr>  (30) 
0.0

>  <CLD_GAPDH_6hr>  (30) 
0.0

>  <CLD_GSTA2_24hr>  (30) 
0.0

>  <CLD_GSTA2_48hr>  (30) 
0.0

>  <CLD_GSTA2_6hr>  (30) 
0.0

>  <CLD_HMGCS2_24hr>  (30) 
0.0

>  <CLD_HMGCS2_48hr>  (30) 
0.0

>  <CLD_HMGCS2_6hr>  (30) 
0.0

>  <CLD_SLCO1B1_24hr>  (30) 
0.0

>  <CLD_SLCO1B1_48hr>  (30) 
0.0

>  <CLD_SLCO1B1_6hr>  (30) 
0.0

>  <CLD_SULT2A_24hr>  (30) 
0.0

>  <CLD_SULT2A_48hr>  (30) 
0.0

>  <CLD_SULT2A_6hr>  (30) 
0.0

>  <CLD_UGT1A1_24hr>  (30) 
0.0

>  <CLD_UGT1A1_48hr>  (30) 
0.0

>  <CLD_UGT1A1_6hr>  (30) 
0.0

>  <NHEERL_MHC_CellCount_dn>  (30) 
1.0

>  <NHEERL_MHC_CellCount_up>  (30) 
0.0

>  <NHEERL_MHC_MHCvCellCount_dn>  (30) 
0.0

>  <NHEERL_MHC_MHCvCellCount_up>  (30) 
0.0

>  <NHEERL_ZF_144hpf_TERATOSCORE_up>  (30) 
1.0

>  <NIS_HEK293T_CTG_Cytotoxicity>  (30) 
1.0

>  <NIS_RAIU_inhibition>  (30) 
1.0

>  <NVS_ADME_hCYP19A1>  (30) 
1.0

>  <NVS_ADME_hCYP19A1_Activator>  (30) 
0.0

>  <NVS_ADME_hCYP1A1>  (30) 
0.0

>  <NVS_ADME_hCYP1A1_Activator>  (30) 
0.0

>  <NVS_ADME_hCYP1A2>  (30) 
1.0

>  <NVS_ADME_hCYP1A2_Activator>  (30) 
0.0

>  <NVS_ADME_hCYP2C19>  (30) 
1.0

>  <NVS_ADME_hCYP2C19_Activator>  (30) 
0.0

>  <NVS_ADME_hCYP2C8>  (30) 
0.0

>  <NVS_ADME_hCYP2C8_Activator>  (30) 
0.0

>  <NVS_ADME_rCYP2A2>  (30) 
1.0

>  <NVS_ADME_rCYP2A2_Activator>  (30) 
0.0

>  <NVS_ADME_rCYP2B1>  (30) 
1.0

>  <NVS_ADME_rCYP2B1_Activator>  (30) 
0.0

>  <NVS_ENZ_hAKT1>  (30) 
0.0

>  <NVS_ENZ_hAKT1_Activator>  (30) 
0.0

>  <NVS_ENZ_hBACE>  (30) 
0.0

>  <NVS_ENZ_hBACE_Activator>  (30) 
0.0

>  <NVS_ENZ_hCK2a2b2>  (30) 
0.0

>  <NVS_ENZ_hCK2a2b2_Activator>  (30) 
0.0

>  <NVS_ENZ_hDYRK1a>  (30) 
0.0

>  <NVS_ENZ_hDYRK1a_Activator>  (30) 
0.0

>  <NVS_ENZ_hES>  (30) 
1.0

>  <NVS_ENZ_hES_Activator>  (30) 
0.0

>  <NVS_ENZ_hEphB1>  (30) 
0.0

>  <NVS_ENZ_hEphB1_Activator>  (30) 
0.0

>  <NVS_ENZ_hFGFR3>  (30) 
0.0

>  <NVS_ENZ_hFGFR3_Activator>  (30) 
0.0

>  <NVS_ENZ_hPI3Ka>  (30) 
0.0

>  <NVS_ENZ_hPI3Ka_Activator>  (30) 
0.0

>  <NVS_ENZ_hPTPN11>  (30) 
0.0

>  <NVS_ENZ_hPTPN11_Activator>  (30) 
0.0

>  <NVS_ENZ_hPTPN14>  (30) 
0.0

>  <NVS_ENZ_hPTPN14_Activator>  (30) 
0.0

>  <NVS_ENZ_hPTPN6>  (30) 
0.0

>  <NVS_ENZ_hPTPN6_Activator>  (30) 
0.0

>  <NVS_ENZ_hPTPRB>  (30) 
0.0

>  <NVS_ENZ_hPTPRB_Activator>  (30) 
0.0

>  <NVS_ENZ_hRAF1>  (30) 
0.0

>  <NVS_ENZ_hRAF1_Activator>  (30) 
0.0

>  <NVS_ENZ_hTie2>  (30) 
0.0

>  <NVS_ENZ_hTie2_Activator>  (30) 
0.0

>  <NVS_ENZ_oCOX1>  (30) 
0.0

>  <NVS_ENZ_oCOX1_Activator>  (30) 
0.0

>  <NVS_ENZ_pMTHFR>  (30) 
0.0

>  <NVS_ENZ_pMTHFR_Activator>  (30) 
0.0

>  <NVS_ENZ_rCNOS>  (30) 
0.0

>  <NVS_ENZ_rCNOS_Activator>  (30) 
0.0

>  <NVS_GPCR_bDR_NonSelective>  (30) 
0.0

>  <NVS_GPCR_r5HT1_NonSelective>  (30) 
0.0

>  <NVS_GPCR_rAdra1_NonSelective>  (30) 
0.0

>  <NVS_GPCR_rOpiate_NonSelective>  (30) 
0.0

>  <NVS_GPCR_rmMGluR5>  (30) 
0.0

>  <NVS_IC_rCaChN>  (30) 
0.0

>  <NVS_LGIC_bGABAR_Agonist>  (30) 
0.0

>  <NVS_LGIC_bGABARa5>  (30) 
1.0

>  <NVS_MP_hPBR>  (30) 
1.0

>  <NVS_MP_rPBR>  (30) 
1.0

>  <NVS_NR_bPR>  (30) 
0.0

>  <NVS_NR_hCAR_Antagonist>  (30) 
1.0

>  <NVS_NR_hFXR_Antagonist>  (30) 
0.0

>  <NVS_NR_hPPARg>  (30) 
0.0

>  <NVS_NR_hPXR>  (30) 
0.0

>  <NVS_NR_hRAR_Antagonist>  (30) 
0.0

>  <NVS_NR_hTRa_Antagonist>  (30) 
1.0

>  <NVS_TR_gDAT>  (30) 
1.0

>  <NVS_TR_hDAT>  (30) 
0.0

>  <OT_AR_ARSRC1_0480>  (30) 
0.0

>  <OT_AR_ARSRC1_0960>  (30) 
0.0

>  <OT_ER_ERaERa_0480>  (30) 
1.0

>  <OT_ER_ERaERa_1440>  (30) 
1.0

>  <OT_ER_ERaERb_0480>  (30) 
1.0

>  <OT_ER_ERbERb_0480>  (30) 
1.0

>  <OT_ER_ERbERb_1440>  (30) 
1.0

>  <OT_ERa_EREGFP_0480>  (30) 
1.0

>  <TOX21_AP1_BLA_Agonist_ch1>  (30) 
0.0

>  <TOX21_AP1_BLA_Agonist_ch2>  (30) 
1.0

>  <TOX21_AP1_BLA_Agonist_ratio>  (30) 
1.0

>  <TOX21_AP1_BLA_Agonist_viability>  (30) 
0.0

>  <TOX21_ARE_BLA_Agonist_ch1>  (30) 
0.0

>  <TOX21_ARE_BLA_Agonist_ch2>  (30) 
0.0

>  <TOX21_ARE_BLA_agonist_viability>  (30) 
0.0

>  <TOX21_AR_BLA_Agonist_ch1>  (30) 
0.0

>  <TOX21_AR_BLA_Agonist_ch2>  (30) 
0.0

>  <TOX21_AR_BLA_Agonist_ratio>  (30) 
0.0

>  <TOX21_AR_BLA_Antagonist_ch1>  (30) 
0.0

>  <TOX21_AR_BLA_Antagonist_ch2>  (30) 
0.0

>  <TOX21_AR_BLA_Antagonist_ratio>  (30) 
0.0

>  <TOX21_AR_BLA_Antagonist_viability>  (30) 
0.0

>  <TOX21_AR_LUC_MDAKB2_Agonist>  (30) 
0.0

>  <TOX21_AR_LUC_MDAKB2_Agonist_3uM_Nilutamide>  (30) 
0.0

>  <TOX21_AR_LUC_MDAKB2_Agonist_3uM_Nilutamide_viability>  (30) 
0.0

>  <TOX21_AR_LUC_MDAKB2_Antagonist_0.5nM_R1881>  (30) 
0.0

>  <TOX21_AR_LUC_MDAKB2_Antagonist_0.5nM_R1881_viability>  (30) 
0.0

>  <TOX21_AR_LUC_MDAKB2_Antagonist_10nM_R1881>  (30) 
0.0

>  <TOX21_AR_LUC_MDAKB2_Antagonist_10nM_R1881_viability>  (30) 
0.0

>  <TOX21_AhR_LUC_Agonist>  (30) 
0.0

>  <TOX21_Aromatase_Inhibition>  (30) 
0.0

>  <TOX21_Aromatase_Inhibition_viability>  (30) 
0.0

>  <TOX21_AutoFluor_HEK293_Cell_blue>  (30) 
0.0

>  <TOX21_AutoFluor_HEK293_Cell_green>  (30) 
0.0

>  <TOX21_AutoFluor_HEK293_Cell_red>  (30) 
0.0

>  <TOX21_AutoFluor_HEK293_Media_blue>  (30) 
0.0

>  <TOX21_AutoFluor_HEK293_Media_green>  (30) 
0.0

>  <TOX21_AutoFluor_HEK293_Media_red>  (30) 
0.0

>  <TOX21_AutoFluor_HEPG2_Cell_blue>  (30) 
0.0

>  <TOX21_AutoFluor_HEPG2_Cell_green>  (30) 
0.0

>  <TOX21_AutoFluor_HEPG2_Cell_red>  (30) 
0.0

>  <TOX21_AutoFluor_HEPG2_Media_blue>  (30) 
0.0

>  <TOX21_AutoFluor_HEPG2_Media_green>  (30) 
0.0

>  <TOX21_AutoFluor_HEPG2_Media_red>  (30) 
0.0

>  <TOX21_CAR_Agonist>  (30) 
0.0

>  <TOX21_CAR_Antagonist>  (30) 
0.0

>  <TOX21_CAR_Antagonist_viability>  (30) 
0.0

>  <TOX21_CASP3_CHO>  (30) 
0.0

>  <TOX21_CASP3_CHO_viability>  (30) 
0.0

>  <TOX21_CASP3_HEPG2>  (30) 
0.0

>  <TOX21_CASP3_HEPG2_viability>  (30) 
0.0

>  <TOX21_DT40>  (30) 
1.0

>  <TOX21_DT40_100>  (30) 
1.0

>  <TOX21_DT40_657>  (30) 
1.0

>  <TOX21_ELG1_LUC_Agonist>  (30) 
0.0

>  <TOX21_ELG1_LUC_Agonist_viability>  (30) 
0.0

>  <TOX21_ERR_Agonist>  (30) 
0.0

>  <TOX21_ERR_Antagonist>  (30) 
0.0

>  <TOX21_ERa_BLA_Agonist_ch1>  (30) 
0.0

>  <TOX21_ERa_BLA_Agonist_ch2>  (30) 
0.0

>  <TOX21_ERa_BLA_Agonist_ratio>  (30) 
1.0

>  <TOX21_ERa_BLA_Antagonist_ch1>  (30) 
0.0

>  <TOX21_ERa_BLA_Antagonist_ch2>  (30) 
0.0

>  <TOX21_ERa_BLA_Antagonist_ratio>  (30) 
0.0

>  <TOX21_ERa_BLA_Antagonist_viability>  (30) 
0.0

>  <TOX21_ERa_LUC_VM7_Agonist>  (30) 
1.0

>  <TOX21_ERa_LUC_VM7_Agonist_10nM_ICI182780>  (30) 
0.0

>  <TOX21_ERa_LUC_VM7_Agonist_10nM_ICI182780_viability>  (30) 
0.0

>  <TOX21_ERa_LUC_VM7_Antagonist_0.1nM_E2>  (30) 
0.0

>  <TOX21_ERa_LUC_VM7_Antagonist_0.1nM_E2_viability>  (30) 
0.0

>  <TOX21_ERa_LUC_VM7_Antagonist_0.5nM_E2>  (30) 
0.0

>  <TOX21_ERa_LUC_VM7_Antagonist_0.5nM_E2_viability>  (30) 
0.0

>  <TOX21_ERb_BLA_Agonist_ch1>  (30) 
0.0

>  <TOX21_ERb_BLA_Agonist_ch2>  (30) 
0.0

>  <TOX21_ERb_BLA_Agonist_ratio>  (30) 
0.0

>  <TOX21_ERb_BLA_Agonist_viability>  (30) 
0.0

>  <TOX21_ERb_BLA_Antagonist_ch1>  (30) 
0.0

>  <TOX21_ERb_BLA_Antagonist_ch2>  (30) 
0.0

>  <TOX21_ERb_BLA_Antagonist_ratio>  (30) 
0.0

>  <TOX21_ERb_BLA_Antagonist_viability>  (30) 
0.0

>  <TOX21_ESRE_BLA_ch1>  (30) 
0.0

>  <TOX21_ESRE_BLA_ch2>  (30) 
0.0

>  <TOX21_ESRE_BLA_ratio>  (30) 
0.0

>  <TOX21_ESRE_BLA_viability>  (30) 
0.0

>  <TOX21_FXR_BLA_Antagonist_ch1>  (30) 
0.0

>  <TOX21_FXR_BLA_Antagonist_ch2>  (30) 
0.0

>  <TOX21_FXR_BLA_agonist_ch1>  (30) 
0.0

>  <TOX21_FXR_BLA_agonist_ch2>  (30) 
0.0

>  <TOX21_FXR_BLA_agonist_ratio>  (30) 
0.0

>  <TOX21_FXR_BLA_agonist_viability>  (30) 
0.0

>  <TOX21_FXR_BLA_antagonist_ratio>  (30) 
0.0

>  <TOX21_FXR_BLA_antagonist_viability>  (30) 
0.0

>  <TOX21_GR_BLA_Agonist_ch1>  (30) 
0.0

>  <TOX21_GR_BLA_Agonist_ch2>  (30) 
0.0

>  <TOX21_GR_BLA_Agonist_ratio>  (30) 
0.0

>  <TOX21_GR_BLA_Antagonist_ch1>  (30) 
0.0

>  <TOX21_GR_BLA_Antagonist_ch2>  (30) 
0.0

>  <TOX21_GR_BLA_Antagonist_ratio>  (30) 
0.0

>  <TOX21_GR_BLA_Antagonist_viability>  (30) 
0.0

>  <TOX21_H2AX_HTRF_CHO_Agonist_ch1>  (30) 
0.0

>  <TOX21_H2AX_HTRF_CHO_Agonist_ch2>  (30) 
0.0

>  <TOX21_H2AX_HTRF_CHO_Agonist_ratio>  (30) 
0.0

>  <TOX21_H2AX_HTRF_CHO_viability>  (30) 
0.0

>  <TOX21_HDAC_Inhibition>  (30) 
0.0

>  <TOX21_HDAC_Inhibition_viability>  (30) 
0.0

>  <TOX21_HRE_BLA_Agonist_ch1>  (30) 
0.0

>  <TOX21_HRE_BLA_Agonist_ch2>  (30) 
0.0

>  <TOX21_HRE_BLA_Agonist_ratio>  (30) 
0.0

>  <TOX21_HRE_BLA_Agonist_viability>  (30) 
0.0

>  <TOX21_HSE_BLA_agonist_ch1>  (30) 
0.0

>  <TOX21_HSE_BLA_agonist_ch2>  (30) 
0.0

>  <TOX21_HSE_BLA_agonist_ratio>  (30) 
0.0

>  <TOX21_HSE_BLA_agonist_viability>  (30) 
0.0

>  <TOX21_LUC_Biochem>  (30) 
0.0

>  <TOX21_MMP_fitc>  (30) 
0.0

>  <TOX21_MMP_ratio_down>  (30) 
0.0

>  <TOX21_MMP_ratio_up>  (30) 
0.0

>  <TOX21_MMP_rhodamine>  (30) 
0.0

>  <TOX21_MMP_viability>  (30) 
0.0

>  <TOX21_NFkB_BLA_agonist_ch1>  (30) 
0.0

>  <TOX21_NFkB_BLA_agonist_ch2>  (30) 
0.0

>  <TOX21_NFkB_BLA_agonist_ratio>  (30) 
0.0

>  <TOX21_NFkB_BLA_agonist_viability>  (30) 
0.0

>  <TOX21_PGC_ERR_Agonist>  (30) 
0.0

>  <TOX21_PGC_ERR_Antagonist>  (30) 
0.0

>  <TOX21_PGC_ERR_viability>  (30) 
0.0

>  <TOX21_PPARd_BLA_Agonist_viability>  (30) 
0.0

>  <TOX21_PPARd_BLA_Antagonist_ch1>  (30) 
0.0

>  <TOX21_PPARd_BLA_Antagonist_ch2>  (30) 
0.0

>  <TOX21_PPARd_BLA_agonist_ch1>  (30) 
0.0

>  <TOX21_PPARd_BLA_agonist_ch2>  (30) 
0.0

>  <TOX21_PPARd_BLA_agonist_ratio>  (30) 
0.0

>  <TOX21_PPARd_BLA_antagonist_ratio>  (30) 
0.0

>  <TOX21_PPARd_BLA_antagonist_viability>  (30) 
0.0

>  <TOX21_PPARg_BLA_Agonist_ch1>  (30) 
0.0

>  <TOX21_PPARg_BLA_Agonist_ch2>  (30) 
0.0

>  <TOX21_PPARg_BLA_Agonist_ratio>  (30) 
0.0

>  <TOX21_PPARg_BLA_Antagonist_ch1>  (30) 
0.0

>  <TOX21_PPARg_BLA_Antagonist_ch2>  (30) 
0.0

>  <TOX21_PPARg_BLA_antagonist_ratio>  (30) 
0.0

>  <TOX21_PPARg_BLA_antagonist_viability>  (30) 
0.0

>  <TOX21_PR_BLA_Agonist_ch1>  (30) 
0.0

>  <TOX21_PR_BLA_Agonist_ch2>  (30) 
0.0

>  <TOX21_PR_BLA_Agonist_ratio>  (30) 
0.0

>  <TOX21_PR_BLA_Antagonist_ch1>  (30) 
0.0

>  <TOX21_PR_BLA_Antagonist_ch2>  (30) 
0.0

>  <TOX21_PR_BLA_Antagonist_ratio>  (30) 
1.0

>  <TOX21_PR_BLA_Antagonist_viability>  (30) 
0.0

>  <TOX21_PXR_Agonist>  (30) 
0.0

>  <TOX21_PXR_viability>  (30) 
0.0

>  <TOX21_RAR_LUC_Agonist>  (30) 
0.0

>  <TOX21_RAR_LUC_Agonist_viability>  (30) 
0.0

>  <TOX21_RAR_LUC_Antagonist_viability>  (30) 
0.0

>  <TOX21_RORg_LUC_CHO_Antagonist>  (30) 
0.0

>  <TOX21_RORg_LUC_CHO_Antagonist_viability>  (30) 
0.0

>  <TOX21_RT_HEK293_FLO_00hr_viability>  (30) 
0.0

>  <TOX21_RT_HEK293_FLO_08hr_viability>  (30) 
1.0

>  <TOX21_RT_HEK293_FLO_16hr_viability>  (30) 
0.0

>  <TOX21_RT_HEK293_FLO_24hr_viability>  (30) 
0.0

>  <TOX21_RT_HEK293_FLO_32hr_viability>  (30) 
1.0

>  <TOX21_RT_HEK293_FLO_40hr_viability>  (30) 
1.0

>  <TOX21_RT_HEK293_GLO_00hr_viability>  (30) 
0.0

>  <TOX21_RT_HEK293_GLO_08hr_viability>  (30) 
0.0

>  <TOX21_RT_HEK293_GLO_16hr_viability>  (30) 
0.0

>  <TOX21_RT_HEK293_GLO_24hr_viability>  (30) 
0.0

>  <TOX21_RT_HEK293_GLO_32hr_viability>  (30) 
0.0

>  <TOX21_RT_HEK293_GLO_40hr_viability>  (30) 
0.0

>  <TOX21_RT_HEPG2_FLO_00hr_ctrl_viability>  (30) 
0.0

>  <TOX21_RT_HEPG2_FLO_08hr_viability>  (30) 
0.0

>  <TOX21_RT_HEPG2_FLO_16hr_ctrl_viability>  (30) 
0.0

>  <TOX21_RT_HEPG2_FLO_24hr_viability>  (30) 
1.0

>  <TOX21_RT_HEPG2_FLO_32hr_ctrl_viability>  (30) 
1.0

>  <TOX21_RT_HEPG2_GLO_00hr_ctrl_viability>  (30) 
0.0

>  <TOX21_RT_HEPG2_GLO_08hr_ctrl_viability>  (30) 
0.0

>  <TOX21_RT_HEPG2_GLO_16hr_ctrl_viability>  (30) 
0.0

>  <TOX21_RT_HEPG2_GLO_24hr_ctrl_viability>  (30) 
0.0

>  <TOX21_RT_HEPG2_GLO_32hr_ctrl_viability>  (30) 
0.0

>  <TOX21_RT_HEPG2_GLO_40hr_viability>  (30) 
0.0

>  <TOX21_RXR_BLA_Agonist_ch1>  (30) 
0.0

>  <TOX21_RXR_BLA_Agonist_ch2>  (30) 
0.0

>  <TOX21_RXR_BLA_Agonist_ratio>  (30) 
0.0

>  <TOX21_RXR_BLA_Agonist_viability>  (30) 
0.0

>  <TOX21_SBE_BLA_Agonist_ch1>  (30) 
0.0

>  <TOX21_SBE_BLA_Agonist_ch2>  (30) 
0.0

>  <TOX21_SBE_BLA_Agonist_ratio>  (30) 
0.0

>  <TOX21_SBE_BLA_Agonist_viability>  (30) 
0.0

>  <TOX21_SBE_BLA_Antagonist_ch1>  (30) 
0.0

>  <TOX21_SBE_BLA_Antagonist_ch2>  (30) 
0.0

>  <TOX21_SBE_BLA_Antagonist_ratio>  (30) 
0.0

>  <TOX21_SBE_BLA_Antagonist_viability>  (30) 
0.0

>  <TOX21_SSH_3T3_GLI3_Agonist>  (30) 
0.0

>  <TOX21_SSH_3T3_GLI3_Agonist_viability>  (30) 
0.0

>  <TOX21_SSH_3T3_GLI3_Antagonist>  (30) 
0.0

>  <TOX21_SSH_3T3_GLI3_Antagonist_viability>  (30) 
0.0

>  <TOX21_TRHR_HEK293_Agonist>  (30) 
0.0

>  <TOX21_TRHR_HEK293_Antagonist>  (30) 
0.0

>  <TOX21_TR_LUC_GH3_Agonist>  (30) 
0.0

>  <TOX21_TR_LUC_GH3_Antagonist>  (30) 
0.0

>  <TOX21_TR_LUC_GH3_Antagonist_viability>  (30) 
0.0

>  <TOX21_TSHR_Agonist_ch2>  (30) 
0.0

>  <TOX21_TSHR_Antagonist_ch2>  (30) 
0.0

>  <TOX21_TSHR_Antagonist_ratio>  (30) 
0.0

>  <TOX21_TSHR_HTRF_Agonist_ch1>  (30) 
0.0

>  <TOX21_TSHR_HTRF_Antagonist_ch1>  (30) 
0.0

>  <TOX21_TSHR_wt_HTRF_ch1>  (30) 
0.0

>  <TOX21_TSHR_wt_ch2>  (30) 
0.0

>  <TOX21_TSHR_wt_ratio>  (30) 
0.0

>  <TOX21_VDR_BLA_Agonist_viability>  (30) 
0.0

>  <TOX21_VDR_BLA_Antagonist_ch1>  (30) 
0.0

>  <TOX21_VDR_BLA_Antagonist_ch2>  (30) 
0.0

>  <TOX21_VDR_BLA_agonist_ch1>  (30) 
0.0

>  <TOX21_VDR_BLA_agonist_ch2>  (30) 
0.0

>  <TOX21_VDR_BLA_agonist_ratio>  (30) 
0.0

>  <TOX21_VDR_BLA_antagonist_ratio>  (30) 
0.0

>  <TOX21_VDR_BLA_antagonist_viability>  (30) 
0.0

>  <TOX21_p53_BLA_p1_ch1>  (30) 
0.0

>  <TOX21_p53_BLA_p1_ch2>  (30) 
0.0

>  <TOX21_p53_BLA_p1_ratio>  (30) 
0.0

>  <TOX21_p53_BLA_p1_viability>  (30) 
0.0

>  <TOX21_p53_BLA_p2_ch1>  (30) 
0.0

>  <TOX21_p53_BLA_p2_ch2>  (30) 
0.0

>  <TOX21_p53_BLA_p2_ratio>  (30) 
0.0

>  <TOX21_p53_BLA_p2_viability>  (30) 
0.0

>  <TOX21_p53_BLA_p3_ch1>  (30) 
0.0

>  <TOX21_p53_BLA_p3_ch2>  (30) 
0.0

>  <TOX21_p53_BLA_p3_ratio>  (30) 
0.0

>  <TOX21_p53_BLA_p4_ch1>  (30) 
0.0

>  <TOX21_p53_BLA_p4_ch2>  (30) 
0.0

>  <TOX21_p53_BLA_p4_ratio>  (30) 
0.0

>  <TOX21_p53_BLA_p4_viability>  (30) 
0.0

>  <TOX21_p53_BLA_p5_ch1>  (30) 
0.0

>  <TOX21_p53_BLA_p5_ch2>  (30) 
0.0

>  <TOX21_p53_BLA_p5_ratio>  (30) 
0.0

>  <TOX21_p53_BLA_p5_viability>  (30) 
0.0

>  <Tanguay_ZF_120hpf_AXIS_up>  (30) 
0.0

>  <Tanguay_ZF_120hpf_ActivityScore>  (30) 
0.0

>  <Tanguay_ZF_120hpf_BRAI_up>  (30) 
0.0

>  <Tanguay_ZF_120hpf_CFIN_up>  (30) 
0.0

>  <Tanguay_ZF_120hpf_CIRC_up>  (30) 
0.0

>  <Tanguay_ZF_120hpf_EYE_up>  (30) 
0.0

>  <Tanguay_ZF_120hpf_JAW_up>  (30) 
0.0

>  <Tanguay_ZF_120hpf_MORT_up>  (30) 
0.0

>  <Tanguay_ZF_120hpf_NC_up>  (30) 
0.0

>  <Tanguay_ZF_120hpf_OTIC_up>  (30) 
0.0

>  <Tanguay_ZF_120hpf_PE_up>  (30) 
0.0

>  <Tanguay_ZF_120hpf_PFIN_up>  (30) 
0.0

>  <Tanguay_ZF_120hpf_PIG_up>  (30) 
0.0

>  <Tanguay_ZF_120hpf_SNOU_up>  (30) 
0.0

>  <Tanguay_ZF_120hpf_SOMI_up>  (30) 
0.0

>  <Tanguay_ZF_120hpf_SWIM_up>  (30) 
0.0

>  <Tanguay_ZF_120hpf_TRUN_up>  (30) 
0.0

>  <Tanguay_ZF_120hpf_TR_up>  (30) 
0.0

>  <Tanguay_ZF_120hpf_YSE_up>  (30) 
0.0

>  <UPITT_HCI_U2OS_AR_TIF2_Nucleoli_Agonist>  (30) 
0.0

>  <UPITT_HCI_U2OS_AR_TIF2_Nucleoli_Antagonist>  (30) 
0.0

>  <UPITT_HCI_U2OS_AR_TIF2_Nucleoli_Cytoplasm_Ratio_Agonist>  (30) 
0.0

>  <UPITT_HCI_U2OS_AR_TIF2_Nucleoli_Cytoplasm_Ratio_Antagonist>  (30) 
0.0

>  <NVS_NR_mERa>  (30) 
0.0

$$$$

     RDKit          3D

 24 26  0  0  0  0  0  0  0  0999 V2000
    0.0000    0.0000    0.0000 C   0  0  0  0  0  0  0  0  0  0  0  0
    0.0000    0.0000    0.0000 C   0  0  0  0  0  0  0  0  0  0  0  0
    0.0000    0.0000    0.0000 C   0  0  0  0  0  0  0  0  0  0  0  0
    0.0000    0.0000    0.0000 C   0  0  0  0  0  0  0  0  0  0  0  0
    0.0000    0.0000    0.0000 C   0  0  0  0  0  0  0  0  0  0  0  0
    0.0000    0.0000    0.0000 C   0  0  0  0  0  0  0  0  0  0  0  0
    0.0000    0.0000    0.0000 O   0  0  0  0  0  0  0  0  0  0  0  0
    0.0000    0.0000    0.0000 C   0  0  0  0  0  0  0  0  0  0  0  0
    0.0000    0.0000    0.0000 O   0  0  0  0  0  0  0  0  0  0  0  0
    0.0000    0.0000    0.0000 C   0  0  0  0  0  0  0  0  0  0  0  0
    0.0000    0.0000    0.0000 C   0  0  0  0  0  0  0  0  0  0  0  0
    0.0000    0.0000    0.0000 C   0  0  0  0  0  0  0  0  0  0  0  0
    0.0000    0.0000    0.0000 C   0  0  0  0  0  0  0  0  0  0  0  0
    0.0000    0.0000    0.0000 C   0  0  0  0  0  0  0  0  0  0  0  0
    0.0000    0.0000    0.0000 C   0  0  0  0  0  0  0  0  0  0  0  0
    0.0000    0.0000    0.0000 C   0  0  0  0  0  0  0  0  0  0  0  0
    0.0000    0.0000    0.0000 O   0  0  0  0  0  0  0  0  0  0  0  0
    0.0000    0.0000    0.0000 O   0  0  0  0  0  0  0  0  0  0  0  0
    0.0000    0.0000    0.0000 C   0  0  0  0  0  0  0  0  0  0  0  0
    0.0000    0.0000    0.0000 C   0  0  0  0  0  0  0  0  0  0  0  0
    0.0000    0.0000    0.0000 C   0  0  0  0  0  0  0  0  0  0  0  0
    0.0000    0.0000    0.0000 C   0  0  0  0  0  0  0  0  0  0  0  0
    0.0000    0.0000    0.0000 C   0  0  0  0  0  0  0  0  0  0  0  0
    0.0000    0.0000    0.0000 C   0  0  0  0  0  0  0  0  0  0  0  0
  1  2  1  0
  2  3  1  0
  3  4  1  0
  4  5  1  0
  5  6  1  0
  4  7  1  0
  7  8  1  0
  8  9  2  0
  8 10  1  0
 10 11  2  0
 11 12  1  0
 12 13  2  0
 13 14  1  0
 14 15  2  0
 15 16  1  0
 16 17  2  0
 16 18  1  0
 18 19  1  0
 19 20  1  0
 20 21  1  0
 21 22  1  0
 22 23  1  0
 23 24  1  0
  6  1  1  0
 15 10  1  0
 24 19  1  0
M  END
>  <CASRN>  (31) 
84-61-7

>  <Name>  (31) 
Dicyclohexyl phthalate

>  <Active>  (31) 
0

>  <Inactive>  (31) 
2

>  <Bioactivity>  (31) 
Inactive

>  <Min LEL>  (31) 
nan

>  <Max HDT>  (31) 
1000.0

>  <Class>  (31) 
0

>  <Code>  (31) 
C84617

>  <NVS_NR_hER>  (31) 
0.0

>  <NVS_NR_cAR>  (31) 
0.0

>  <NVS_NR_rAR>  (31) 
0.0

>  <OT_ER_ERaERb_1440>  (31) 
1.0

>  <OT_FXR_FXRSRC1_0480>  (31) 
1.0

>  <OT_PPARg_PPARgSRC1_1440>  (31) 
0.0

>  <OT_FXR_FXRSRC1_1440>  (31) 
1.0

>  <OT_NURR1_NURR1RXRa_0480>  (31) 
1.0

>  <OT_NURR1_NURR1RXRa_1440>  (31) 
1.0

>  <OT_PPARg_PPARgSRC1_0480>  (31) 
0.0

>  <OT_AR_ARELUC_AG_1440>  (31) 
0.0

>  <OT_ERa_EREGFP_0120>  (31) 
1.0

>  <BSK_3C_HLADR_down>  (31) 
1.0

>  <BSK_3C_Vis_down>  (31) 
1.0

>  <BSK_3C_uPAR_down>  (31) 
1.0

>  <ATG_CAR_TRANS_up>  (31) 
0.0

>  <ATG_E2F_CIS_dn>  (31) 
1.0

>  <ATG_EGR_CIS_up>  (31) 
1.0

>  <ATG_ERa_TRANS_dn>  (31) 
0.0

>  <ATG_ERa_TRANS_up>  (31) 
1.0

>  <ATG_FXR_TRANS_dn>  (31) 
0.0

>  <ATG_GLI_CIS_dn>  (31) 
0.0

>  <ATG_GRE_CIS_up>  (31) 
0.0

>  <ATG_LXRa_TRANS_dn>  (31) 
0.0

>  <ATG_LXRa_TRANS_up>  (31) 
0.0

>  <ATG_NRF1_CIS_up>  (31) 
0.0

>  <ATG_NURR1_TRANS_up>  (31) 
0.0

>  <ATG_Sox_CIS_dn>  (31) 
0.0

>  <ATG_Sox_CIS_up>  (31) 
0.0

>  <ATG_Sp1_CIS_up>  (31) 
1.0

>  <ATG_TGFb_CIS_up>  (31) 
1.0

>  <TOX21_ARE_BLA_agonist_ratio>  (31) 
1.0

>  <TOX21_RAR_LUC_Antagonist>  (31) 
1.0

>  <ATG_LXRb_TRANS_dn>  (31) 
0.0

>  <ATG_CAR_TRANS_dn>  (31) 
0.0

>  <ATG_BRE_CIS_dn>  (31) 
0.0

>  <ATG_E2F_CIS_up>  (31) 
0.0

>  <TOX21_TSHR_Agonist_ratio>  (31) 
1.0

>  <ACEA_ER_80hr>  (31) 
0.0

>  <TOX21_CAR_Agonist_viabillity>  (31) 
1.0

>  <TOX21_PR_BLA_Agonist_viability>  (31) 
0.0

>  <TOX21_RT_HEPG2_FLO_40hr_ctrl_viability>  (31) 
0.0

>  <TOX21_AhR_LUC_Agonist_viability>  (31) 
0.0

>  <TOX21_ERR_viability>  (31) 
1.0

>  <TOX21_p53_BLA_p3_viability>  (31) 
0.0

>  <NVS_NR_hPR>  (31) 
0.0

>  <NVS_NR_hGR>  (31) 
1.0

>  <NVS_NR_hAR>  (31) 
0.0

>  <NVS_NR_bER>  (31) 
0.0

>  <ACEA_AR_agonist_80hr>  (31) 
0.0

>  <ACEA_AR_agonist_AUC_viability>  (31) 
0.0

>  <ACEA_AR_antagonist_80hr>  (31) 
0.0

>  <ACEA_AR_antagonist_AUC_viability>  (31) 
0.0

>  <ACEA_ER_AUC_viability>  (31) 
0.0

>  <ATG_AP_1_CIS_dn>  (31) 
0.0

>  <ATG_AP_1_CIS_up>  (31) 
1.0

>  <ATG_AP_2_CIS_dn>  (31) 
0.0

>  <ATG_AP_2_CIS_up>  (31) 
0.0

>  <ATG_AR_TRANS_dn>  (31) 
0.0

>  <ATG_AR_TRANS_up>  (31) 
0.0

>  <ATG_Ahr_CIS_dn>  (31) 
0.0

>  <ATG_Ahr_CIS_up>  (31) 
1.0

>  <ATG_BRE_CIS_up>  (31) 
1.0

>  <ATG_CMV_CIS_dn>  (31) 
0.0

>  <ATG_CMV_CIS_up>  (31) 
1.0

>  <ATG_CRE_CIS_dn>  (31) 
0.0

>  <ATG_CRE_CIS_up>  (31) 
0.0

>  <ATG_C_EBP_CIS_dn>  (31) 
0.0

>  <ATG_C_EBP_CIS_up>  (31) 
0.0

>  <ATG_DR4_LXR_CIS_dn>  (31) 
1.0

>  <ATG_DR4_LXR_CIS_up>  (31) 
0.0

>  <ATG_DR5_CIS_dn>  (31) 
0.0

>  <ATG_DR5_CIS_up>  (31) 
0.0

>  <ATG_EGR_CIS_dn>  (31) 
0.0

>  <ATG_ERE_CIS_dn>  (31) 
0.0

>  <ATG_ERE_CIS_up>  (31) 
1.0

>  <ATG_ERRa_TRANS_dn>  (31) 
0.0

>  <ATG_ERRa_TRANS_up>  (31) 
0.0

>  <ATG_ERRg_TRANS_dn>  (31) 
0.0

>  <ATG_ERRg_TRANS_up>  (31) 
0.0

>  <ATG_E_Box_CIS_dn>  (31) 
0.0

>  <ATG_E_Box_CIS_up>  (31) 
1.0

>  <ATG_Ets_CIS_dn>  (31) 
0.0

>  <ATG_Ets_CIS_up>  (31) 
0.0

>  <ATG_FXR_TRANS_up>  (31) 
0.0

>  <ATG_FoxA2_CIS_dn>  (31) 
0.0

>  <ATG_FoxA2_CIS_up>  (31) 
0.0

>  <ATG_FoxO_CIS_dn>  (31) 
0.0

>  <ATG_FoxO_CIS_up>  (31) 
0.0

>  <ATG_GAL4_TRANS_dn>  (31) 
0.0

>  <ATG_GAL4_TRANS_up>  (31) 
0.0

>  <ATG_GATA_CIS_dn>  (31) 
0.0

>  <ATG_GATA_CIS_up>  (31) 
0.0

>  <ATG_GLI_CIS_up>  (31) 
0.0

>  <ATG_GRE_CIS_dn>  (31) 
0.0

>  <ATG_GR_TRANS_dn>  (31) 
0.0

>  <ATG_GR_TRANS_up>  (31) 
0.0

>  <ATG_HIF1a_CIS_dn>  (31) 
0.0

>  <ATG_HIF1a_CIS_up>  (31) 
1.0

>  <ATG_HNF4a_TRANS_dn>  (31) 
0.0

>  <ATG_HNF4a_TRANS_up>  (31) 
0.0

>  <ATG_HNF6_CIS_dn>  (31) 
0.0

>  <ATG_HNF6_CIS_up>  (31) 
0.0

>  <ATG_HSE_CIS_dn>  (31) 
0.0

>  <ATG_HSE_CIS_up>  (31) 
0.0

>  <ATG_IR1_CIS_dn>  (31) 
1.0

>  <ATG_IR1_CIS_up>  (31) 
0.0

>  <ATG_ISRE_CIS_dn>  (31) 
0.0

>  <ATG_ISRE_CIS_up>  (31) 
0.0

>  <ATG_LXRb_TRANS_up>  (31) 
0.0

>  <ATG_MRE_CIS_dn>  (31) 
0.0

>  <ATG_MRE_CIS_up>  (31) 
1.0

>  <ATG_M_06_CIS_dn>  (31) 
0.0

>  <ATG_M_06_CIS_up>  (31) 
0.0

>  <ATG_M_06_TRANS_dn>  (31) 
0.0

>  <ATG_M_06_TRANS_up>  (31) 
0.0

>  <ATG_M_19_CIS_dn>  (31) 
0.0

>  <ATG_M_19_CIS_up>  (31) 
0.0

>  <ATG_M_19_TRANS_dn>  (31) 
0.0

>  <ATG_M_19_TRANS_up>  (31) 
0.0

>  <ATG_M_32_CIS_dn>  (31) 
0.0

>  <ATG_M_32_CIS_up>  (31) 
0.0

>  <ATG_M_32_TRANS_dn>  (31) 
0.0

>  <ATG_M_32_TRANS_up>  (31) 
0.0

>  <ATG_M_61_CIS_dn>  (31) 
0.0

>  <ATG_M_61_CIS_up>  (31) 
0.0

>  <ATG_M_61_TRANS_dn>  (31) 
0.0

>  <ATG_M_61_TRANS_up>  (31) 
0.0

>  <ATG_Myb_CIS_dn>  (31) 
0.0

>  <ATG_Myb_CIS_up>  (31) 
0.0

>  <ATG_Myc_CIS_dn>  (31) 
0.0

>  <ATG_Myc_CIS_up>  (31) 
0.0

>  <ATG_NFI_CIS_dn>  (31) 
0.0

>  <ATG_NFI_CIS_up>  (31) 
0.0

>  <ATG_NF_kB_CIS_dn>  (31) 
0.0

>  <ATG_NF_kB_CIS_up>  (31) 
0.0

>  <ATG_NRF1_CIS_dn>  (31) 
0.0

>  <ATG_NRF2_ARE_CIS_dn>  (31) 
0.0

>  <ATG_NRF2_ARE_CIS_up>  (31) 
1.0

>  <ATG_NURR1_TRANS_dn>  (31) 
0.0

>  <ATG_Oct_MLP_CIS_dn>  (31) 
0.0

>  <ATG_Oct_MLP_CIS_up>  (31) 
0.0

>  <ATG_PBREM_CIS_dn>  (31) 
0.0

>  <ATG_PBREM_CIS_up>  (31) 
0.0

>  <ATG_PPARa_TRANS_dn>  (31) 
0.0

>  <ATG_PPARa_TRANS_up>  (31) 
0.0

>  <ATG_PPARd_TRANS_dn>  (31) 
0.0

>  <ATG_PPARd_TRANS_up>  (31) 
0.0

>  <ATG_PPARg_TRANS_dn>  (31) 
0.0

>  <ATG_PPARg_TRANS_up>  (31) 
1.0

>  <ATG_PPRE_CIS_dn>  (31) 
0.0

>  <ATG_PPRE_CIS_up>  (31) 
1.0

>  <ATG_PXRE_CIS_dn>  (31) 
0.0

>  <ATG_PXRE_CIS_up>  (31) 
1.0

>  <ATG_PXR_TRANS_dn>  (31) 
0.0

>  <ATG_PXR_TRANS_up>  (31) 
1.0

>  <ATG_Pax6_CIS_dn>  (31) 
0.0

>  <ATG_Pax6_CIS_up>  (31) 
0.0

>  <ATG_RARa_TRANS_dn>  (31) 
1.0

>  <ATG_RARa_TRANS_up>  (31) 
0.0

>  <ATG_RARb_TRANS_dn>  (31) 
1.0

>  <ATG_RARb_TRANS_up>  (31) 
0.0

>  <ATG_RARg_TRANS_dn>  (31) 
0.0

>  <ATG_RARg_TRANS_up>  (31) 
0.0

>  <ATG_RORE_CIS_dn>  (31) 
0.0

>  <ATG_RORE_CIS_up>  (31) 
1.0

>  <ATG_RORb_TRANS_dn>  (31) 
0.0

>  <ATG_RORb_TRANS_up>  (31) 
0.0

>  <ATG_RORg_TRANS_dn>  (31) 
0.0

>  <ATG_RORg_TRANS_up>  (31) 
0.0

>  <ATG_RXRa_TRANS_dn>  (31) 
0.0

>  <ATG_RXRa_TRANS_up>  (31) 
0.0

>  <ATG_RXRb_TRANS_dn>  (31) 
0.0

>  <ATG_RXRb_TRANS_up>  (31) 
1.0

>  <ATG_SREBP_CIS_dn>  (31) 
0.0

>  <ATG_SREBP_CIS_up>  (31) 
1.0

>  <ATG_STAT3_CIS_dn>  (31) 
0.0

>  <ATG_STAT3_CIS_up>  (31) 
0.0

>  <ATG_Sp1_CIS_dn>  (31) 
0.0

>  <ATG_TAL_CIS_dn>  (31) 
0.0

>  <ATG_TAL_CIS_up>  (31) 
0.0

>  <ATG_TA_CIS_dn>  (31) 
0.0

>  <ATG_TA_CIS_up>  (31) 
1.0

>  <ATG_TCF_b_cat_CIS_dn>  (31) 
0.0

>  <ATG_TCF_b_cat_CIS_up>  (31) 
0.0

>  <ATG_TGFb_CIS_dn>  (31) 
0.0

>  <ATG_THRa1_TRANS_dn>  (31) 
0.0

>  <ATG_THRa1_TRANS_up>  (31) 
0.0

>  <ATG_VDRE_CIS_dn>  (31) 
0.0

>  <ATG_VDRE_CIS_up>  (31) 
1.0

>  <ATG_VDR_TRANS_dn>  (31) 
0.0

>  <ATG_VDR_TRANS_up>  (31) 
0.0

>  <ATG_XTT_Cytotoxicity_up>  (31) 
0.0

>  <ATG_Xbp1_CIS_dn>  (31) 
0.0

>  <ATG_Xbp1_CIS_up>  (31) 
0.0

>  <ATG_p53_CIS_dn>  (31) 
0.0

>  <ATG_p53_CIS_up>  (31) 
0.0

>  <BSK_3C_Eselectin_down>  (31) 
1.0

>  <BSK_3C_Eselectin_up>  (31) 
0.0

>  <BSK_3C_HLADR_up>  (31) 
0.0

>  <BSK_3C_ICAM1_down>  (31) 
1.0

>  <BSK_3C_ICAM1_up>  (31) 
0.0

>  <BSK_3C_IL8_down>  (31) 
1.0

>  <BSK_3C_IL8_up>  (31) 
0.0

>  <BSK_3C_MCP1_down>  (31) 
1.0

>  <BSK_3C_MCP1_up>  (31) 
0.0

>  <BSK_3C_MIG_down>  (31) 
0.0

>  <BSK_3C_MIG_up>  (31) 
0.0

>  <BSK_3C_Proliferation_down>  (31) 
1.0

>  <BSK_3C_Proliferation_up>  (31) 
0.0

>  <BSK_3C_SRB_down>  (31) 
1.0

>  <BSK_3C_SRB_up>  (31) 
0.0

>  <BSK_3C_Thrombomodulin_down>  (31) 
0.0

>  <BSK_3C_Thrombomodulin_up>  (31) 
0.0

>  <BSK_3C_TissueFactor_down>  (31) 
1.0

>  <BSK_3C_TissueFactor_up>  (31) 
0.0

>  <BSK_3C_VCAM1_down>  (31) 
1.0

>  <BSK_3C_VCAM1_up>  (31) 
0.0

>  <BSK_3C_Vis_up>  (31) 
0.0

>  <BSK_3C_uPAR_up>  (31) 
0.0

>  <BSK_4H_Eotaxin3_down>  (31) 
1.0

>  <BSK_4H_Eotaxin3_up>  (31) 
0.0

>  <BSK_4H_MCP1_down>  (31) 
1.0

>  <BSK_4H_MCP1_up>  (31) 
0.0

>  <BSK_4H_Pselectin_down>  (31) 
1.0

>  <BSK_4H_Pselectin_up>  (31) 
0.0

>  <BSK_4H_SRB_down>  (31) 
1.0

>  <BSK_4H_SRB_up>  (31) 
0.0

>  <BSK_4H_VCAM1_down>  (31) 
1.0

>  <BSK_4H_VCAM1_up>  (31) 
0.0

>  <BSK_4H_VEGFRII_down>  (31) 
1.0

>  <BSK_4H_VEGFRII_up>  (31) 
0.0

>  <BSK_4H_uPAR_down>  (31) 
1.0

>  <BSK_4H_uPAR_up>  (31) 
0.0

>  <BSK_BE3C_HLADR_down>  (31) 
1.0

>  <BSK_BE3C_HLADR_up>  (31) 
0.0

>  <BSK_BE3C_IL1a_down>  (31) 
1.0

>  <BSK_BE3C_IL1a_up>  (31) 
0.0

>  <BSK_BE3C_IP10_down>  (31) 
1.0

>  <BSK_BE3C_IP10_up>  (31) 
0.0

>  <BSK_BE3C_MIG_down>  (31) 
0.0

>  <BSK_BE3C_MIG_up>  (31) 
0.0

>  <BSK_BE3C_MMP1_down>  (31) 
0.0

>  <BSK_BE3C_MMP1_up>  (31) 
1.0

>  <BSK_BE3C_PAI1_down>  (31) 
1.0

>  <BSK_BE3C_PAI1_up>  (31) 
0.0

>  <BSK_BE3C_SRB_down>  (31) 
0.0

>  <BSK_BE3C_SRB_up>  (31) 
0.0

>  <BSK_BE3C_TGFb1_down>  (31) 
0.0

>  <BSK_BE3C_TGFb1_up>  (31) 
0.0

>  <BSK_BE3C_tPA_down>  (31) 
1.0

>  <BSK_BE3C_tPA_up>  (31) 
0.0

>  <BSK_BE3C_uPAR_down>  (31) 
0.0

>  <BSK_BE3C_uPAR_up>  (31) 
0.0

>  <BSK_BE3C_uPA_down>  (31) 
0.0

>  <BSK_BE3C_uPA_up>  (31) 
0.0

>  <BSK_CASM3C_HLADR_down>  (31) 
0.0

>  <BSK_CASM3C_HLADR_up>  (31) 
0.0

>  <BSK_CASM3C_IL6_down>  (31) 
0.0

>  <BSK_CASM3C_IL6_up>  (31) 
0.0

>  <BSK_CASM3C_IL8_down>  (31) 
0.0

>  <BSK_CASM3C_IL8_up>  (31) 
0.0

>  <BSK_CASM3C_LDLR_down>  (31) 
1.0

>  <BSK_CASM3C_LDLR_up>  (31) 
0.0

>  <BSK_CASM3C_MCP1_down>  (31) 
0.0

>  <BSK_CASM3C_MCP1_up>  (31) 
0.0

>  <BSK_CASM3C_MCSF_down>  (31) 
0.0

>  <BSK_CASM3C_MCSF_up>  (31) 
0.0

>  <BSK_CASM3C_MIG_down>  (31) 
0.0

>  <BSK_CASM3C_MIG_up>  (31) 
0.0

>  <BSK_CASM3C_Proliferation_down>  (31) 
1.0

>  <BSK_CASM3C_Proliferation_up>  (31) 
0.0

>  <BSK_CASM3C_SAA_down>  (31) 
0.0

>  <BSK_CASM3C_SAA_up>  (31) 
0.0

>  <BSK_CASM3C_SRB_down>  (31) 
1.0

>  <BSK_CASM3C_SRB_up>  (31) 
0.0

>  <BSK_CASM3C_Thrombomodulin_down>  (31) 
0.0

>  <BSK_CASM3C_Thrombomodulin_up>  (31) 
1.0

>  <BSK_CASM3C_TissueFactor_down>  (31) 
1.0

>  <BSK_CASM3C_TissueFactor_up>  (31) 
0.0

>  <BSK_CASM3C_VCAM1_down>  (31) 
0.0

>  <BSK_CASM3C_VCAM1_up>  (31) 
0.0

>  <BSK_CASM3C_uPAR_down>  (31) 
0.0

>  <BSK_CASM3C_uPAR_up>  (31) 
0.0

>  <BSK_KF3CT_ICAM1_down>  (31) 
0.0

>  <BSK_KF3CT_ICAM1_up>  (31) 
0.0

>  <BSK_KF3CT_IL1a_down>  (31) 
1.0

>  <BSK_KF3CT_IL1a_up>  (31) 
0.0

>  <BSK_KF3CT_IP10_down>  (31) 
1.0

>  <BSK_KF3CT_IP10_up>  (31) 
0.0

>  <BSK_KF3CT_MCP1_down>  (31) 
0.0

>  <BSK_KF3CT_MCP1_up>  (31) 
0.0

>  <BSK_KF3CT_MMP9_down>  (31) 
1.0

>  <BSK_KF3CT_MMP9_up>  (31) 
0.0

>  <BSK_KF3CT_SRB_down>  (31) 
0.0

>  <BSK_KF3CT_SRB_up>  (31) 
0.0

>  <BSK_KF3CT_TGFb1_down>  (31) 
1.0

>  <BSK_KF3CT_TGFb1_up>  (31) 
0.0

>  <BSK_KF3CT_TIMP2_down>  (31) 
1.0

>  <BSK_KF3CT_TIMP2_up>  (31) 
0.0

>  <BSK_KF3CT_uPA_down>  (31) 
0.0

>  <BSK_KF3CT_uPA_up>  (31) 
0.0

>  <BSK_LPS_CD40_down>  (31) 
1.0

>  <BSK_LPS_CD40_up>  (31) 
0.0

>  <BSK_LPS_Eselectin_down>  (31) 
1.0

>  <BSK_LPS_Eselectin_up>  (31) 
0.0

>  <BSK_LPS_IL1a_down>  (31) 
1.0

>  <BSK_LPS_IL1a_up>  (31) 
0.0

>  <BSK_LPS_IL8_down>  (31) 
1.0

>  <BSK_LPS_IL8_up>  (31) 
0.0

>  <BSK_LPS_MCP1_down>  (31) 
1.0

>  <BSK_LPS_MCP1_up>  (31) 
0.0

>  <BSK_LPS_MCSF_down>  (31) 
1.0

>  <BSK_LPS_MCSF_up>  (31) 
0.0

>  <BSK_LPS_PGE2_down>  (31) 
0.0

>  <BSK_LPS_PGE2_up>  (31) 
0.0

>  <BSK_LPS_SRB_down>  (31) 
1.0

>  <BSK_LPS_SRB_up>  (31) 
0.0

>  <BSK_LPS_TNFa_down>  (31) 
1.0

>  <BSK_LPS_TNFa_up>  (31) 
0.0

>  <BSK_LPS_TissueFactor_down>  (31) 
1.0

>  <BSK_LPS_TissueFactor_up>  (31) 
0.0

>  <BSK_LPS_VCAM1_down>  (31) 
1.0

>  <BSK_LPS_VCAM1_up>  (31) 
0.0

>  <BSK_SAg_CD38_down>  (31) 
1.0

>  <BSK_SAg_CD38_up>  (31) 
0.0

>  <BSK_SAg_CD40_down>  (31) 
1.0

>  <BSK_SAg_CD40_up>  (31) 
0.0

>  <BSK_SAg_CD69_down>  (31) 
1.0

>  <BSK_SAg_CD69_up>  (31) 
0.0

>  <BSK_SAg_Eselectin_down>  (31) 
1.0

>  <BSK_SAg_Eselectin_up>  (31) 
0.0

>  <BSK_SAg_IL8_down>  (31) 
1.0

>  <BSK_SAg_IL8_up>  (31) 
0.0

>  <BSK_SAg_MCP1_down>  (31) 
1.0

>  <BSK_SAg_MCP1_up>  (31) 
0.0

>  <BSK_SAg_MIG_down>  (31) 
1.0

>  <BSK_SAg_MIG_up>  (31) 
0.0

>  <BSK_SAg_PBMCCytotoxicity_down>  (31) 
1.0

>  <BSK_SAg_PBMCCytotoxicity_up>  (31) 
0.0

>  <BSK_SAg_Proliferation_down>  (31) 
1.0

>  <BSK_SAg_Proliferation_up>  (31) 
0.0

>  <BSK_SAg_SRB_down>  (31) 
1.0

>  <BSK_SAg_SRB_up>  (31) 
0.0

>  <BSK_hDFCGF_CollagenIII_down>  (31) 
1.0

>  <BSK_hDFCGF_CollagenIII_up>  (31) 
0.0

>  <BSK_hDFCGF_EGFR_down>  (31) 
1.0

>  <BSK_hDFCGF_EGFR_up>  (31) 
0.0

>  <BSK_hDFCGF_IL8_down>  (31) 
1.0

>  <BSK_hDFCGF_IL8_up>  (31) 
0.0

>  <BSK_hDFCGF_IP10_down>  (31) 
1.0

>  <BSK_hDFCGF_IP10_up>  (31) 
0.0

>  <BSK_hDFCGF_MCSF_down>  (31) 
1.0

>  <BSK_hDFCGF_MCSF_up>  (31) 
0.0

>  <BSK_hDFCGF_MIG_down>  (31) 
1.0

>  <BSK_hDFCGF_MIG_up>  (31) 
0.0

>  <BSK_hDFCGF_MMP1_down>  (31) 
1.0

>  <BSK_hDFCGF_MMP1_up>  (31) 
0.0

>  <BSK_hDFCGF_PAI1_down>  (31) 
1.0

>  <BSK_hDFCGF_PAI1_up>  (31) 
0.0

>  <BSK_hDFCGF_Proliferation_down>  (31) 
1.0

>  <BSK_hDFCGF_Proliferation_up>  (31) 
0.0

>  <BSK_hDFCGF_SRB_down>  (31) 
1.0

>  <BSK_hDFCGF_SRB_up>  (31) 
0.0

>  <BSK_hDFCGF_TIMP1_down>  (31) 
1.0

>  <BSK_hDFCGF_TIMP1_up>  (31) 
0.0

>  <BSK_hDFCGF_VCAM1_down>  (31) 
1.0

>  <BSK_hDFCGF_VCAM1_up>  (31) 
0.0

>  <CEETOX_H295R_11DCORT_noMTC_dn>  (31) 
1.0

>  <CEETOX_H295R_11DCORT_noMTC_up>  (31) 
0.0

>  <CEETOX_H295R_ANDR_noMTC_dn>  (31) 
0.0

>  <CEETOX_H295R_ANDR_noMTC_up>  (31) 
0.0

>  <CEETOX_H295R_CORTIC_noMTC_dn>  (31) 
0.0

>  <CEETOX_H295R_CORTIC_noMTC_up>  (31) 
0.0

>  <CEETOX_H295R_CORTISOL_noMTC_dn>  (31) 
0.0

>  <CEETOX_H295R_CORTISOL_noMTC_up>  (31) 
0.0

>  <CEETOX_H295R_DOC_noMTC_dn>  (31) 
1.0

>  <CEETOX_H295R_DOC_noMTC_up>  (31) 
0.0

>  <CEETOX_H295R_ESTRADIOL_noMTC_dn>  (31) 
0.0

>  <CEETOX_H295R_ESTRADIOL_noMTC_up>  (31) 
0.0

>  <CEETOX_H295R_ESTRONE_noMTC_dn>  (31) 
0.0

>  <CEETOX_H295R_ESTRONE_noMTC_up>  (31) 
0.0

>  <CEETOX_H295R_MTT_cell_viability_dn>  (31) 
1.0

>  <CEETOX_H295R_MTT_cell_viability_up>  (31) 
0.0

>  <CEETOX_H295R_OHPREG_noMTC_dn>  (31) 
1.0

>  <CEETOX_H295R_OHPREG_noMTC_up>  (31) 
0.0

>  <CEETOX_H295R_OHPROG_noMTC_dn>  (31) 
1.0

>  <CEETOX_H295R_OHPROG_noMTC_up>  (31) 
0.0

>  <CEETOX_H295R_PROG_noMTC_dn>  (31) 
0.0

>  <CEETOX_H295R_PROG_noMTC_up>  (31) 
0.0

>  <CEETOX_H295R_TESTO_noMTC_dn>  (31) 
0.0

>  <CEETOX_H295R_TESTO_noMTC_up>  (31) 
0.0

>  <NVS_ENZ_hMMP9>  (31) 
1.0

>  <NVS_ENZ_hMMP9_Activator>  (31) 
0.0

>  <NVS_GPCR_hOpiate_mu>  (31) 
0.0

>  <NVS_GPCR_rTRH>  (31) 
0.0

>  <NVS_IC_rCaBTZCHL>  (31) 
0.0

>  <NVS_MP_hPBR>  (31) 
1.0

>  <NVS_NR_hPPARa>  (31) 
0.0

>  <NVS_NR_hPPARg>  (31) 
0.0

>  <NVS_NR_rMR>  (31) 
1.0

>  <OT_AR_ARSRC1_0480>  (31) 
1.0

>  <OT_AR_ARSRC1_0960>  (31) 
1.0

>  <OT_ER_ERaERa_0480>  (31) 
1.0

>  <OT_ER_ERaERa_1440>  (31) 
1.0

>  <OT_ER_ERaERb_0480>  (31) 
1.0

>  <OT_ER_ERbERb_0480>  (31) 
1.0

>  <OT_ER_ERbERb_1440>  (31) 
0.0

>  <OT_ERa_EREGFP_0480>  (31) 
0.0

>  <TOX21_AP1_BLA_Agonist_ch1>  (31) 
0.0

>  <TOX21_AP1_BLA_Agonist_ch2>  (31) 
0.0

>  <TOX21_AP1_BLA_Agonist_ratio>  (31) 
0.0

>  <TOX21_AP1_BLA_Agonist_viability>  (31) 
0.0

>  <TOX21_ARE_BLA_Agonist_ch1>  (31) 
0.0

>  <TOX21_ARE_BLA_Agonist_ch2>  (31) 
1.0

>  <TOX21_ARE_BLA_agonist_viability>  (31) 
0.0

>  <TOX21_AR_BLA_Agonist_ch1>  (31) 
0.0

>  <TOX21_AR_BLA_Agonist_ch2>  (31) 
0.0

>  <TOX21_AR_BLA_Agonist_ratio>  (31) 
0.0

>  <TOX21_AR_BLA_Antagonist_ch1>  (31) 
0.0

>  <TOX21_AR_BLA_Antagonist_ch2>  (31) 
1.0

>  <TOX21_AR_BLA_Antagonist_ratio>  (31) 
1.0

>  <TOX21_AR_BLA_Antagonist_viability>  (31) 
1.0

>  <TOX21_AR_LUC_MDAKB2_Agonist>  (31) 
0.0

>  <TOX21_AR_LUC_MDAKB2_Agonist_3uM_Nilutamide>  (31) 
0.0

>  <TOX21_AR_LUC_MDAKB2_Agonist_3uM_Nilutamide_viability>  (31) 
0.0

>  <TOX21_AR_LUC_MDAKB2_Antagonist_0.5nM_R1881>  (31) 
1.0

>  <TOX21_AR_LUC_MDAKB2_Antagonist_0.5nM_R1881_viability>  (31) 
0.0

>  <TOX21_AR_LUC_MDAKB2_Antagonist_10nM_R1881>  (31) 
0.0

>  <TOX21_AR_LUC_MDAKB2_Antagonist_10nM_R1881_viability>  (31) 
0.0

>  <TOX21_AhR_LUC_Agonist>  (31) 
0.0

>  <TOX21_Aromatase_Inhibition>  (31) 
1.0

>  <TOX21_Aromatase_Inhibition_viability>  (31) 
1.0

>  <TOX21_AutoFluor_HEK293_Cell_blue>  (31) 
0.0

>  <TOX21_AutoFluor_HEK293_Cell_green>  (31) 
0.0

>  <TOX21_AutoFluor_HEK293_Cell_red>  (31) 
0.0

>  <TOX21_AutoFluor_HEK293_Media_blue>  (31) 
0.0

>  <TOX21_AutoFluor_HEK293_Media_green>  (31) 
0.0

>  <TOX21_AutoFluor_HEK293_Media_red>  (31) 
0.0

>  <TOX21_AutoFluor_HEPG2_Cell_blue>  (31) 
0.0

>  <TOX21_AutoFluor_HEPG2_Cell_green>  (31) 
0.0

>  <TOX21_AutoFluor_HEPG2_Cell_red>  (31) 
0.0

>  <TOX21_AutoFluor_HEPG2_Media_blue>  (31) 
0.0

>  <TOX21_AutoFluor_HEPG2_Media_green>  (31) 
0.0

>  <TOX21_AutoFluor_HEPG2_Media_red>  (31) 
0.0

>  <TOX21_CAR_Agonist>  (31) 
1.0

>  <TOX21_CAR_Antagonist>  (31) 
0.0

>  <TOX21_CAR_Antagonist_viability>  (31) 
1.0

>  <TOX21_CASP3_CHO>  (31) 
0.0

>  <TOX21_CASP3_CHO_viability>  (31) 
1.0

>  <TOX21_CASP3_HEPG2>  (31) 
0.0

>  <TOX21_CASP3_HEPG2_viability>  (31) 
1.0

>  <TOX21_DT40>  (31) 
1.0

>  <TOX21_DT40_100>  (31) 
1.0

>  <TOX21_DT40_657>  (31) 
1.0

>  <TOX21_ELG1_LUC_Agonist>  (31) 
0.0

>  <TOX21_ELG1_LUC_Agonist_viability>  (31) 
0.0

>  <TOX21_ERR_Agonist>  (31) 
0.0

>  <TOX21_ERR_Antagonist>  (31) 
1.0

>  <TOX21_ERa_BLA_Agonist_ch1>  (31) 
0.0

>  <TOX21_ERa_BLA_Agonist_ch2>  (31) 
0.0

>  <TOX21_ERa_BLA_Agonist_ratio>  (31) 
0.0

>  <TOX21_ERa_BLA_Antagonist_ch1>  (31) 
1.0

>  <TOX21_ERa_BLA_Antagonist_ch2>  (31) 
0.0

>  <TOX21_ERa_BLA_Antagonist_ratio>  (31) 
1.0

>  <TOX21_ERa_BLA_Antagonist_viability>  (31) 
0.0

>  <TOX21_ERa_LUC_VM7_Agonist>  (31) 
0.0

>  <TOX21_ERa_LUC_VM7_Agonist_10nM_ICI182780>  (31) 
0.0

>  <TOX21_ERa_LUC_VM7_Agonist_10nM_ICI182780_viability>  (31) 
0.0

>  <TOX21_ERa_LUC_VM7_Antagonist_0.1nM_E2>  (31) 
1.0

>  <TOX21_ERa_LUC_VM7_Antagonist_0.1nM_E2_viability>  (31) 
0.0

>  <TOX21_ERa_LUC_VM7_Antagonist_0.5nM_E2>  (31) 
0.0

>  <TOX21_ERa_LUC_VM7_Antagonist_0.5nM_E2_viability>  (31) 
0.0

>  <TOX21_ERb_BLA_Agonist_ch1>  (31) 
0.0

>  <TOX21_ERb_BLA_Agonist_ch2>  (31) 
0.0

>  <TOX21_ERb_BLA_Agonist_ratio>  (31) 
0.0

>  <TOX21_ERb_BLA_Agonist_viability>  (31) 
1.0

>  <TOX21_ERb_BLA_Antagonist_ch1>  (31) 
0.0

>  <TOX21_ERb_BLA_Antagonist_ch2>  (31) 
1.0

>  <TOX21_ERb_BLA_Antagonist_ratio>  (31) 
1.0

>  <TOX21_ERb_BLA_Antagonist_viability>  (31) 
1.0

>  <TOX21_ESRE_BLA_ch1>  (31) 
0.0

>  <TOX21_ESRE_BLA_ch2>  (31) 
0.0

>  <TOX21_ESRE_BLA_ratio>  (31) 
0.0

>  <TOX21_ESRE_BLA_viability>  (31) 
0.0

>  <TOX21_FXR_BLA_Antagonist_ch1>  (31) 
1.0

>  <TOX21_FXR_BLA_Antagonist_ch2>  (31) 
0.0

>  <TOX21_FXR_BLA_agonist_ch1>  (31) 
0.0

>  <TOX21_FXR_BLA_agonist_ch2>  (31) 
0.0

>  <TOX21_FXR_BLA_agonist_ratio>  (31) 
0.0

>  <TOX21_FXR_BLA_agonist_viability>  (31) 
0.0

>  <TOX21_FXR_BLA_antagonist_ratio>  (31) 
1.0

>  <TOX21_FXR_BLA_antagonist_viability>  (31) 
0.0

>  <TOX21_GR_BLA_Agonist_ch1>  (31) 
0.0

>  <TOX21_GR_BLA_Agonist_ch2>  (31) 
0.0

>  <TOX21_GR_BLA_Agonist_ratio>  (31) 
0.0

>  <TOX21_GR_BLA_Antagonist_ch1>  (31) 
0.0

>  <TOX21_GR_BLA_Antagonist_ch2>  (31) 
0.0

>  <TOX21_GR_BLA_Antagonist_ratio>  (31) 
0.0

>  <TOX21_GR_BLA_Antagonist_viability>  (31) 
0.0

>  <TOX21_H2AX_HTRF_CHO_Agonist_ch1>  (31) 
0.0

>  <TOX21_H2AX_HTRF_CHO_Agonist_ch2>  (31) 
0.0

>  <TOX21_H2AX_HTRF_CHO_Agonist_ratio>  (31) 
0.0

>  <TOX21_H2AX_HTRF_CHO_viability>  (31) 
1.0

>  <TOX21_HDAC_Inhibition>  (31) 
0.0

>  <TOX21_HDAC_Inhibition_viability>  (31) 
0.0

>  <TOX21_HRE_BLA_Agonist_ch1>  (31) 
0.0

>  <TOX21_HRE_BLA_Agonist_ch2>  (31) 
0.0

>  <TOX21_HRE_BLA_Agonist_ratio>  (31) 
0.0

>  <TOX21_HRE_BLA_Agonist_viability>  (31) 
1.0

>  <TOX21_HSE_BLA_agonist_ch1>  (31) 
0.0

>  <TOX21_HSE_BLA_agonist_ch2>  (31) 
0.0

>  <TOX21_HSE_BLA_agonist_ratio>  (31) 
0.0

>  <TOX21_HSE_BLA_agonist_viability>  (31) 
0.0

>  <TOX21_LUC_Biochem>  (31) 
0.0

>  <TOX21_MMP_fitc>  (31) 
0.0

>  <TOX21_MMP_ratio_down>  (31) 
1.0

>  <TOX21_MMP_ratio_up>  (31) 
0.0

>  <TOX21_MMP_rhodamine>  (31) 
1.0

>  <TOX21_MMP_viability>  (31) 
1.0

>  <TOX21_NFkB_BLA_agonist_ch1>  (31) 
0.0

>  <TOX21_NFkB_BLA_agonist_ch2>  (31) 
0.0

>  <TOX21_NFkB_BLA_agonist_ratio>  (31) 
0.0

>  <TOX21_NFkB_BLA_agonist_viability>  (31) 
0.0

>  <TOX21_PGC_ERR_Agonist>  (31) 
0.0

>  <TOX21_PGC_ERR_Antagonist>  (31) 
0.0

>  <TOX21_PGC_ERR_viability>  (31) 
0.0

>  <TOX21_PPARd_BLA_Agonist_viability>  (31) 
1.0

>  <TOX21_PPARd_BLA_Antagonist_ch1>  (31) 
0.0

>  <TOX21_PPARd_BLA_Antagonist_ch2>  (31) 
0.0

>  <TOX21_PPARd_BLA_agonist_ch1>  (31) 
0.0

>  <TOX21_PPARd_BLA_agonist_ch2>  (31) 
0.0

>  <TOX21_PPARd_BLA_agonist_ratio>  (31) 
0.0

>  <TOX21_PPARd_BLA_antagonist_ratio>  (31) 
0.0

>  <TOX21_PPARd_BLA_antagonist_viability>  (31) 
0.0

>  <TOX21_PPARg_BLA_Agonist_ch1>  (31) 
0.0

>  <TOX21_PPARg_BLA_Agonist_ch2>  (31) 
0.0

>  <TOX21_PPARg_BLA_Agonist_ratio>  (31) 
0.0

>  <TOX21_PPARg_BLA_Antagonist_ch1>  (31) 
0.0

>  <TOX21_PPARg_BLA_Antagonist_ch2>  (31) 
0.0

>  <TOX21_PPARg_BLA_antagonist_ratio>  (31) 
1.0

>  <TOX21_PPARg_BLA_antagonist_viability>  (31) 
0.0

>  <TOX21_PR_BLA_Agonist_ch1>  (31) 
0.0

>  <TOX21_PR_BLA_Agonist_ch2>  (31) 
0.0

>  <TOX21_PR_BLA_Agonist_ratio>  (31) 
0.0

>  <TOX21_PR_BLA_Antagonist_ch1>  (31) 
0.0

>  <TOX21_PR_BLA_Antagonist_ch2>  (31) 
0.0

>  <TOX21_PR_BLA_Antagonist_ratio>  (31) 
1.0

>  <TOX21_PR_BLA_Antagonist_viability>  (31) 
0.0

>  <TOX21_PXR_Agonist>  (31) 
0.0

>  <TOX21_PXR_viability>  (31) 
1.0

>  <TOX21_RAR_LUC_Agonist>  (31) 
0.0

>  <TOX21_RAR_LUC_Agonist_viability>  (31) 
0.0

>  <TOX21_RAR_LUC_Antagonist_viability>  (31) 
0.0

>  <TOX21_RORg_LUC_CHO_Antagonist>  (31) 
1.0

>  <TOX21_RORg_LUC_CHO_Antagonist_viability>  (31) 
1.0

>  <TOX21_RT_HEK293_FLO_00hr_viability>  (31) 
0.0

>  <TOX21_RT_HEK293_FLO_08hr_viability>  (31) 
0.0

>  <TOX21_RT_HEK293_FLO_16hr_viability>  (31) 
0.0

>  <TOX21_RT_HEK293_FLO_24hr_viability>  (31) 
0.0

>  <TOX21_RT_HEK293_FLO_32hr_viability>  (31) 
0.0

>  <TOX21_RT_HEK293_FLO_40hr_viability>  (31) 
0.0

>  <TOX21_RT_HEK293_GLO_00hr_viability>  (31) 
0.0

>  <TOX21_RT_HEK293_GLO_08hr_viability>  (31) 
0.0

>  <TOX21_RT_HEK293_GLO_16hr_viability>  (31) 
0.0

>  <TOX21_RT_HEK293_GLO_24hr_viability>  (31) 
1.0

>  <TOX21_RT_HEK293_GLO_32hr_viability>  (31) 
1.0

>  <TOX21_RT_HEK293_GLO_40hr_viability>  (31) 
1.0

>  <TOX21_RT_HEPG2_FLO_00hr_ctrl_viability>  (31) 
0.0

>  <TOX21_RT_HEPG2_FLO_08hr_viability>  (31) 
0.0

>  <TOX21_RT_HEPG2_FLO_16hr_ctrl_viability>  (31) 
0.0

>  <TOX21_RT_HEPG2_FLO_24hr_viability>  (31) 
0.0

>  <TOX21_RT_HEPG2_FLO_32hr_ctrl_viability>  (31) 
0.0

>  <TOX21_RT_HEPG2_GLO_00hr_ctrl_viability>  (31) 
0.0

>  <TOX21_RT_HEPG2_GLO_08hr_ctrl_viability>  (31) 
0.0

>  <TOX21_RT_HEPG2_GLO_16hr_ctrl_viability>  (31) 
0.0

>  <TOX21_RT_HEPG2_GLO_24hr_ctrl_viability>  (31) 
0.0

>  <TOX21_RT_HEPG2_GLO_32hr_ctrl_viability>  (31) 
0.0

>  <TOX21_RT_HEPG2_GLO_40hr_viability>  (31) 
0.0

>  <TOX21_RXR_BLA_Agonist_ch1>  (31) 
0.0

>  <TOX21_RXR_BLA_Agonist_ch2>  (31) 
0.0

>  <TOX21_RXR_BLA_Agonist_ratio>  (31) 
0.0

>  <TOX21_RXR_BLA_Agonist_viability>  (31) 
1.0

>  <TOX21_SBE_BLA_Agonist_ch1>  (31) 
0.0

>  <TOX21_SBE_BLA_Agonist_ch2>  (31) 
0.0

>  <TOX21_SBE_BLA_Agonist_ratio>  (31) 
0.0

>  <TOX21_SBE_BLA_Agonist_viability>  (31) 
0.0

>  <TOX21_SBE_BLA_Antagonist_ch1>  (31) 
0.0

>  <TOX21_SBE_BLA_Antagonist_ch2>  (31) 
1.0

>  <TOX21_SBE_BLA_Antagonist_ratio>  (31) 
1.0

>  <TOX21_SBE_BLA_Antagonist_viability>  (31) 
0.0

>  <TOX21_SSH_3T3_GLI3_Agonist>  (31) 
0.0

>  <TOX21_SSH_3T3_GLI3_Agonist_viability>  (31) 
1.0

>  <TOX21_SSH_3T3_GLI3_Antagonist>  (31) 
1.0

>  <TOX21_SSH_3T3_GLI3_Antagonist_viability>  (31) 
1.0

>  <TOX21_TRHR_HEK293_Agonist>  (31) 
0.0

>  <TOX21_TRHR_HEK293_Antagonist>  (31) 
0.0

>  <TOX21_TR_LUC_GH3_Agonist>  (31) 
0.0

>  <TOX21_TR_LUC_GH3_Antagonist>  (31) 
1.0

>  <TOX21_TR_LUC_GH3_Antagonist_viability>  (31) 
1.0

>  <TOX21_TSHR_Agonist_ch2>  (31) 
0.0

>  <TOX21_TSHR_Antagonist_ch2>  (31) 
0.0

>  <TOX21_TSHR_Antagonist_ratio>  (31) 
0.0

>  <TOX21_TSHR_HTRF_Agonist_ch1>  (31) 
1.0

>  <TOX21_TSHR_HTRF_Antagonist_ch1>  (31) 
0.0

>  <TOX21_TSHR_wt_HTRF_ch1>  (31) 
0.0

>  <TOX21_TSHR_wt_ch2>  (31) 
0.0

>  <TOX21_TSHR_wt_ratio>  (31) 
0.0

>  <TOX21_VDR_BLA_Agonist_viability>  (31) 
1.0

>  <TOX21_VDR_BLA_Antagonist_ch1>  (31) 
0.0

>  <TOX21_VDR_BLA_Antagonist_ch2>  (31) 
0.0

>  <TOX21_VDR_BLA_agonist_ch1>  (31) 
0.0

>  <TOX21_VDR_BLA_agonist_ch2>  (31) 
0.0

>  <TOX21_VDR_BLA_agonist_ratio>  (31) 
0.0

>  <TOX21_VDR_BLA_antagonist_ratio>  (31) 
0.0

>  <TOX21_VDR_BLA_antagonist_viability>  (31) 
0.0

>  <TOX21_p53_BLA_p1_ch1>  (31) 
0.0

>  <TOX21_p53_BLA_p1_ch2>  (31) 
0.0

>  <TOX21_p53_BLA_p1_ratio>  (31) 
0.0

>  <TOX21_p53_BLA_p1_viability>  (31) 
0.0

>  <TOX21_p53_BLA_p2_ch1>  (31) 
0.0

>  <TOX21_p53_BLA_p2_ch2>  (31) 
0.0

>  <TOX21_p53_BLA_p2_ratio>  (31) 
0.0

>  <TOX21_p53_BLA_p2_viability>  (31) 
0.0

>  <TOX21_p53_BLA_p3_ch1>  (31) 
0.0

>  <TOX21_p53_BLA_p3_ch2>  (31) 
0.0

>  <TOX21_p53_BLA_p3_ratio>  (31) 
0.0

>  <TOX21_p53_BLA_p4_ch1>  (31) 
0.0

>  <TOX21_p53_BLA_p4_ch2>  (31) 
0.0

>  <TOX21_p53_BLA_p4_ratio>  (31) 
0.0

>  <TOX21_p53_BLA_p4_viability>  (31) 
0.0

>  <TOX21_p53_BLA_p5_ch1>  (31) 
0.0

>  <TOX21_p53_BLA_p5_ch2>  (31) 
0.0

>  <TOX21_p53_BLA_p5_ratio>  (31) 
0.0

>  <TOX21_p53_BLA_p5_viability>  (31) 
0.0

>  <UPITT_HCI_U2OS_AR_TIF2_Nucleoli_Agonist>  (31) 
0.0

>  <UPITT_HCI_U2OS_AR_TIF2_Nucleoli_Antagonist>  (31) 
1.0

>  <UPITT_HCI_U2OS_AR_TIF2_Nucleoli_Cytoplasm_Ratio_Agonist>  (31) 
0.0

>  <UPITT_HCI_U2OS_AR_TIF2_Nucleoli_Cytoplasm_Ratio_Antagonist>  (31) 
0.0

>  <NVS_NR_mERa>  (31) 
0

$$$$

     RDKit          3D

 24 24  0  0  0  0  0  0  0  0999 V2000
    0.0000    0.0000    0.0000 C   0  0  0  0  0  0  0  0  0  0  0  0
    0.0000    0.0000    0.0000 C   0  0  0  0  0  0  0  0  0  0  0  0
    0.0000    0.0000    0.0000 C   0  0  0  0  0  0  0  0  0  0  0  0
    0.0000    0.0000    0.0000 C   0  0  0  0  0  0  0  0  0  0  0  0
    0.0000    0.0000    0.0000 C   0  0  0  0  0  0  0  0  0  0  0  0
    0.0000    0.0000    0.0000 C   0  0  0  0  0  0  0  0  0  0  0  0
    0.0000    0.0000    0.0000 O   0  0  0  0  0  0  0  0  0  0  0  0
    0.0000    0.0000    0.0000 C   0  0  0  0  0  0  0  0  0  0  0  0
    0.0000    0.0000    0.0000 O   0  0  0  0  0  0  0  0  0  0  0  0
    0.0000    0.0000    0.0000 C   0  0  0  0  0  0  0  0  0  0  0  0
    0.0000    0.0000    0.0000 C   0  0  0  0  0  0  0  0  0  0  0  0
    0.0000    0.0000    0.0000 C   0  0  0  0  0  0  0  0  0  0  0  0
    0.0000    0.0000    0.0000 C   0  0  0  0  0  0  0  0  0  0  0  0
    0.0000    0.0000    0.0000 C   0  0  0  0  0  0  0  0  0  0  0  0
    0.0000    0.0000    0.0000 C   0  0  0  0  0  0  0  0  0  0  0  0
    0.0000    0.0000    0.0000 C   0  0  0  0  0  0  0  0  0  0  0  0
    0.0000    0.0000    0.0000 O   0  0  0  0  0  0  0  0  0  0  0  0
    0.0000    0.0000    0.0000 O   0  0  0  0  0  0  0  0  0  0  0  0
    0.0000    0.0000    0.0000 C   0  0  0  0  0  0  0  0  0  0  0  0
    0.0000    0.0000    0.0000 C   0  0  0  0  0  0  0  0  0  0  0  0
    0.0000    0.0000    0.0000 C   0  0  0  0  0  0  0  0  0  0  0  0
    0.0000    0.0000    0.0000 C   0  0  0  0  0  0  0  0  0  0  0  0
    0.0000    0.0000    0.0000 C   0  0  0  0  0  0  0  0  0  0  0  0
    0.0000    0.0000    0.0000 C   0  0  0  0  0  0  0  0  0  0  0  0
  1  2  1  0
  2  3  1  0
  3  4  1  0
  4  5  1  0
  5  6  1  0
  6  7  1  0
  7  8  1  0
  8  9  2  0
  8 10  1  0
 10 11  2  0
 11 12  1  0
 12 13  2  0
 13 14  1  0
 14 15  2  0
 15 16  1  0
 16 17  2  0
 16 18  1  0
 18 19  1  0
 19 20  1  0
 20 21  1  0
 21 22  1  0
 22 23  1  0
 23 24  1  0
 15 10  1  0
M  END
>  <CASRN>  (32) 
84-75-3

>  <Name>  (32) 
Dihexyl phthalate

>  <Active>  (32) 
0

>  <Inactive>  (32) 
2

>  <Bioactivity>  (32) 
Inactive

>  <Min LEL>  (32) 
nan

>  <Max HDT>  (32) 
1000.0

>  <Class>  (32) 
0

>  <Code>  (32) 
C84753

>  <NVS_NR_hER>  (32) 
0.0

>  <OT_ER_ERaERb_1440>  (32) 
1.0

>  <OT_FXR_FXRSRC1_0480>  (32) 
1.0

>  <OT_PPARg_PPARgSRC1_1440>  (32) 
0.0

>  <OT_FXR_FXRSRC1_1440>  (32) 
0.0

>  <OT_NURR1_NURR1RXRa_0480>  (32) 
0.0

>  <OT_NURR1_NURR1RXRa_1440>  (32) 
0.0

>  <OT_PPARg_PPARgSRC1_0480>  (32) 
0.0

>  <OT_AR_ARELUC_AG_1440>  (32) 
0.0

>  <OT_ERa_EREGFP_0120>  (32) 
0.0

>  <BSK_3C_HLADR_down>  (32) 
1.0

>  <BSK_3C_Vis_down>  (32) 
0.0

>  <BSK_3C_uPAR_down>  (32) 
0.0

>  <ATG_CAR_TRANS_up>  (32) 
0.0

>  <ATG_E2F_CIS_dn>  (32) 
0.0

>  <ATG_EGR_CIS_up>  (32) 
0.0

>  <ATG_ERa_TRANS_dn>  (32) 
0.0

>  <ATG_ERa_TRANS_up>  (32) 
1.0

>  <ATG_FXR_TRANS_dn>  (32) 
0.0

>  <ATG_GLI_CIS_dn>  (32) 
0.0

>  <ATG_GRE_CIS_up>  (32) 
0.0

>  <ATG_LXRa_TRANS_dn>  (32) 
0.0

>  <ATG_LXRa_TRANS_up>  (32) 
0.0

>  <ATG_NRF1_CIS_up>  (32) 
0.0

>  <ATG_NURR1_TRANS_up>  (32) 
0.0

>  <ATG_Sox_CIS_dn>  (32) 
0.0

>  <ATG_Sox_CIS_up>  (32) 
0.0

>  <ATG_Sp1_CIS_up>  (32) 
0.0

>  <ATG_TGFb_CIS_up>  (32) 
0.0

>  <TOX21_ARE_BLA_agonist_ratio>  (32) 
0.0

>  <TOX21_RAR_LUC_Antagonist>  (32) 
0.0

>  <ATG_LXRb_TRANS_dn>  (32) 
1.0

>  <ATG_CAR_TRANS_dn>  (32) 
0.0

>  <ATG_BRE_CIS_dn>  (32) 
0.0

>  <ATG_E2F_CIS_up>  (32) 
0.0

>  <TOX21_TSHR_Agonist_ratio>  (32) 
0.0

>  <ACEA_ER_80hr>  (32) 
0.0

>  <TOX21_CAR_Agonist_viabillity>  (32) 
0.0

>  <TOX21_PR_BLA_Agonist_viability>  (32) 
0.0

>  <TOX21_RT_HEPG2_FLO_40hr_ctrl_viability>  (32) 
0.0

>  <TOX21_AhR_LUC_Agonist_viability>  (32) 
0.0

>  <TOX21_ERR_viability>  (32) 
0.0

>  <TOX21_p53_BLA_p3_viability>  (32) 
0.0

>  <NVS_NR_cAR>  (32) 
0.0

>  <NVS_NR_hPR>  (32) 
0.0

>  <NVS_NR_rAR>  (32) 
0.0

>  <NVS_NR_hGR>  (32) 
0.0

>  <NVS_NR_hAR>  (32) 
0.0

>  <ACEA_AR_agonist_80hr>  (32) 
0.0

>  <ACEA_AR_agonist_AUC_viability>  (32) 
1.0

>  <ACEA_AR_antagonist_80hr>  (32) 
1.0

>  <ACEA_AR_antagonist_AUC_viability>  (32) 
1.0

>  <ACEA_ER_AUC_viability>  (32) 
0.0

>  <APR_HepG2_CellCycleArrest_24h_dn>  (32) 
1.0

>  <APR_HepG2_CellCycleArrest_24h_up>  (32) 
0.0

>  <APR_HepG2_CellCycleArrest_72h_dn>  (32) 
1.0

>  <APR_HepG2_CellCycleArrest_72h_up>  (32) 
0.0

>  <APR_HepG2_CellLoss_24h_dn>  (32) 
1.0

>  <APR_HepG2_CellLoss_24h_up>  (32) 
0.0

>  <APR_HepG2_CellLoss_72h_dn>  (32) 
1.0

>  <APR_HepG2_CellLoss_72h_up>  (32) 
0.0

>  <APR_HepG2_MicrotubuleCSK_24h_dn>  (32) 
0.0

>  <APR_HepG2_MicrotubuleCSK_24h_up>  (32) 
0.0

>  <APR_HepG2_MicrotubuleCSK_72h_dn>  (32) 
0.0

>  <APR_HepG2_MicrotubuleCSK_72h_up>  (32) 
1.0

>  <APR_HepG2_MitoMass_24h_dn>  (32) 
0.0

>  <APR_HepG2_MitoMass_24h_up>  (32) 
0.0

>  <APR_HepG2_MitoMass_72h_dn>  (32) 
0.0

>  <APR_HepG2_MitoMass_72h_up>  (32) 
0.0

>  <APR_HepG2_MitoMembPot_24h_dn>  (32) 
1.0

>  <APR_HepG2_MitoMembPot_24h_up>  (32) 
0.0

>  <APR_HepG2_MitoMembPot_72h_dn>  (32) 
0.0

>  <APR_HepG2_MitoMembPot_72h_up>  (32) 
0.0

>  <APR_HepG2_MitoticArrest_24h_dn>  (32) 
0.0

>  <APR_HepG2_MitoticArrest_24h_up>  (32) 
0.0

>  <APR_HepG2_MitoticArrest_72h_dn>  (32) 
0.0

>  <APR_HepG2_MitoticArrest_72h_up>  (32) 
0.0

>  <APR_HepG2_NuclearSize_24h_dn>  (32) 
0.0

>  <APR_HepG2_NuclearSize_24h_up>  (32) 
0.0

>  <APR_HepG2_NuclearSize_72h_dn>  (32) 
0.0

>  <APR_HepG2_NuclearSize_72h_up>  (32) 
0.0

>  <APR_HepG2_OxidativeStress_24h_dn>  (32) 
0.0

>  <APR_HepG2_OxidativeStress_24h_up>  (32) 
0.0

>  <APR_HepG2_OxidativeStress_72h_dn>  (32) 
0.0

>  <APR_HepG2_OxidativeStress_72h_up>  (32) 
0.0

>  <APR_HepG2_StressKinase_24h_dn>  (32) 
0.0

>  <APR_HepG2_StressKinase_24h_up>  (32) 
0.0

>  <APR_HepG2_StressKinase_72h_dn>  (32) 
0.0

>  <APR_HepG2_StressKinase_72h_up>  (32) 
0.0

>  <APR_HepG2_p53Act_24h_dn>  (32) 
0.0

>  <APR_HepG2_p53Act_24h_up>  (32) 
0.0

>  <APR_HepG2_p53Act_72h_dn>  (32) 
0.0

>  <APR_HepG2_p53Act_72h_up>  (32) 
0.0

>  <ATG_AP_1_CIS_dn>  (32) 
0.0

>  <ATG_AP_1_CIS_up>  (32) 
1.0

>  <ATG_AP_2_CIS_dn>  (32) 
0.0

>  <ATG_AP_2_CIS_up>  (32) 
0.0

>  <ATG_AR_TRANS_dn>  (32) 
0.0

>  <ATG_AR_TRANS_up>  (32) 
0.0

>  <ATG_Ahr_CIS_dn>  (32) 
0.0

>  <ATG_Ahr_CIS_up>  (32) 
0.0

>  <ATG_BRE_CIS_up>  (32) 
0.0

>  <ATG_CMV_CIS_dn>  (32) 
0.0

>  <ATG_CMV_CIS_up>  (32) 
1.0

>  <ATG_CRE_CIS_dn>  (32) 
0.0

>  <ATG_CRE_CIS_up>  (32) 
0.0

>  <ATG_C_EBP_CIS_dn>  (32) 
0.0

>  <ATG_C_EBP_CIS_up>  (32) 
0.0

>  <ATG_DR4_LXR_CIS_dn>  (32) 
0.0

>  <ATG_DR4_LXR_CIS_up>  (32) 
0.0

>  <ATG_DR5_CIS_dn>  (32) 
0.0

>  <ATG_DR5_CIS_up>  (32) 
0.0

>  <ATG_EGR_CIS_dn>  (32) 
0.0

>  <ATG_ERE_CIS_dn>  (32) 
0.0

>  <ATG_ERE_CIS_up>  (32) 
1.0

>  <ATG_ERRa_TRANS_dn>  (32) 
0.0

>  <ATG_ERRa_TRANS_up>  (32) 
0.0

>  <ATG_ERRg_TRANS_dn>  (32) 
0.0

>  <ATG_ERRg_TRANS_up>  (32) 
0.0

>  <ATG_E_Box_CIS_dn>  (32) 
0.0

>  <ATG_E_Box_CIS_up>  (32) 
0.0

>  <ATG_Ets_CIS_dn>  (32) 
0.0

>  <ATG_Ets_CIS_up>  (32) 
0.0

>  <ATG_FXR_TRANS_up>  (32) 
0.0

>  <ATG_FoxA2_CIS_dn>  (32) 
0.0

>  <ATG_FoxA2_CIS_up>  (32) 
1.0

>  <ATG_FoxO_CIS_dn>  (32) 
0.0

>  <ATG_FoxO_CIS_up>  (32) 
0.0

>  <ATG_GAL4_TRANS_dn>  (32) 
0.0

>  <ATG_GAL4_TRANS_up>  (32) 
0.0

>  <ATG_GATA_CIS_dn>  (32) 
0.0

>  <ATG_GATA_CIS_up>  (32) 
0.0

>  <ATG_GLI_CIS_up>  (32) 
0.0

>  <ATG_GRE_CIS_dn>  (32) 
0.0

>  <ATG_GR_TRANS_dn>  (32) 
0.0

>  <ATG_GR_TRANS_up>  (32) 
0.0

>  <ATG_HIF1a_CIS_dn>  (32) 
0.0

>  <ATG_HIF1a_CIS_up>  (32) 
0.0

>  <ATG_HNF4a_TRANS_dn>  (32) 
0.0

>  <ATG_HNF4a_TRANS_up>  (32) 
0.0

>  <ATG_HNF6_CIS_dn>  (32) 
0.0

>  <ATG_HNF6_CIS_up>  (32) 
0.0

>  <ATG_HSE_CIS_dn>  (32) 
0.0

>  <ATG_HSE_CIS_up>  (32) 
0.0

>  <ATG_IR1_CIS_dn>  (32) 
0.0

>  <ATG_IR1_CIS_up>  (32) 
0.0

>  <ATG_ISRE_CIS_dn>  (32) 
1.0

>  <ATG_ISRE_CIS_up>  (32) 
0.0

>  <ATG_LXRb_TRANS_up>  (32) 
0.0

>  <ATG_MRE_CIS_dn>  (32) 
0.0

>  <ATG_MRE_CIS_up>  (32) 
0.0

>  <ATG_M_06_CIS_dn>  (32) 
0.0

>  <ATG_M_06_CIS_up>  (32) 
0.0

>  <ATG_M_06_TRANS_dn>  (32) 
0.0

>  <ATG_M_06_TRANS_up>  (32) 
0.0

>  <ATG_M_19_CIS_dn>  (32) 
0.0

>  <ATG_M_19_CIS_up>  (32) 
0.0

>  <ATG_M_19_TRANS_dn>  (32) 
0.0

>  <ATG_M_19_TRANS_up>  (32) 
0.0

>  <ATG_M_32_CIS_dn>  (32) 
0.0

>  <ATG_M_32_CIS_up>  (32) 
0.0

>  <ATG_M_32_TRANS_dn>  (32) 
0.0

>  <ATG_M_32_TRANS_up>  (32) 
0.0

>  <ATG_M_61_CIS_dn>  (32) 
0.0

>  <ATG_M_61_CIS_up>  (32) 
0.0

>  <ATG_M_61_TRANS_dn>  (32) 
0.0

>  <ATG_M_61_TRANS_up>  (32) 
0.0

>  <ATG_Myb_CIS_dn>  (32) 
0.0

>  <ATG_Myb_CIS_up>  (32) 
0.0

>  <ATG_Myc_CIS_dn>  (32) 
0.0

>  <ATG_Myc_CIS_up>  (32) 
0.0

>  <ATG_NFI_CIS_dn>  (32) 
0.0

>  <ATG_NFI_CIS_up>  (32) 
1.0

>  <ATG_NF_kB_CIS_dn>  (32) 
0.0

>  <ATG_NF_kB_CIS_up>  (32) 
0.0

>  <ATG_NRF1_CIS_dn>  (32) 
0.0

>  <ATG_NRF2_ARE_CIS_dn>  (32) 
0.0

>  <ATG_NRF2_ARE_CIS_up>  (32) 
1.0

>  <ATG_NURR1_TRANS_dn>  (32) 
0.0

>  <ATG_Oct_MLP_CIS_dn>  (32) 
0.0

>  <ATG_Oct_MLP_CIS_up>  (32) 
0.0

>  <ATG_PBREM_CIS_dn>  (32) 
0.0

>  <ATG_PBREM_CIS_up>  (32) 
0.0

>  <ATG_PPARa_TRANS_dn>  (32) 
0.0

>  <ATG_PPARa_TRANS_up>  (32) 
1.0

>  <ATG_PPARd_TRANS_dn>  (32) 
0.0

>  <ATG_PPARd_TRANS_up>  (32) 
0.0

>  <ATG_PPARg_TRANS_dn>  (32) 
0.0

>  <ATG_PPARg_TRANS_up>  (32) 
1.0

>  <ATG_PPRE_CIS_dn>  (32) 
0.0

>  <ATG_PPRE_CIS_up>  (32) 
1.0

>  <ATG_PXRE_CIS_dn>  (32) 
0.0

>  <ATG_PXRE_CIS_up>  (32) 
1.0

>  <ATG_PXR_TRANS_dn>  (32) 
0.0

>  <ATG_PXR_TRANS_up>  (32) 
1.0

>  <ATG_Pax6_CIS_dn>  (32) 
0.0

>  <ATG_Pax6_CIS_up>  (32) 
0.0

>  <ATG_RARa_TRANS_dn>  (32) 
0.0

>  <ATG_RARa_TRANS_up>  (32) 
0.0

>  <ATG_RARb_TRANS_dn>  (32) 
0.0

>  <ATG_RARb_TRANS_up>  (32) 
0.0

>  <ATG_RARg_TRANS_dn>  (32) 
0.0

>  <ATG_RARg_TRANS_up>  (32) 
0.0

>  <ATG_RORE_CIS_dn>  (32) 
0.0

>  <ATG_RORE_CIS_up>  (32) 
0.0

>  <ATG_RORb_TRANS_dn>  (32) 
0.0

>  <ATG_RORb_TRANS_up>  (32) 
0.0

>  <ATG_RORg_TRANS_dn>  (32) 
0.0

>  <ATG_RORg_TRANS_up>  (32) 
0.0

>  <ATG_RXRa_TRANS_dn>  (32) 
0.0

>  <ATG_RXRa_TRANS_up>  (32) 
0.0

>  <ATG_RXRb_TRANS_dn>  (32) 
0.0

>  <ATG_RXRb_TRANS_up>  (32) 
0.0

>  <ATG_SREBP_CIS_dn>  (32) 
0.0

>  <ATG_SREBP_CIS_up>  (32) 
0.0

>  <ATG_STAT3_CIS_dn>  (32) 
0.0

>  <ATG_STAT3_CIS_up>  (32) 
1.0

>  <ATG_Sp1_CIS_dn>  (32) 
0.0

>  <ATG_TAL_CIS_dn>  (32) 
0.0

>  <ATG_TAL_CIS_up>  (32) 
0.0

>  <ATG_TA_CIS_dn>  (32) 
0.0

>  <ATG_TA_CIS_up>  (32) 
0.0

>  <ATG_TCF_b_cat_CIS_dn>  (32) 
0.0

>  <ATG_TCF_b_cat_CIS_up>  (32) 
0.0

>  <ATG_TGFb_CIS_dn>  (32) 
0.0

>  <ATG_THRa1_TRANS_dn>  (32) 
0.0

>  <ATG_THRa1_TRANS_up>  (32) 
0.0

>  <ATG_VDRE_CIS_dn>  (32) 
0.0

>  <ATG_VDRE_CIS_up>  (32) 
1.0

>  <ATG_VDR_TRANS_dn>  (32) 
0.0

>  <ATG_VDR_TRANS_up>  (32) 
0.0

>  <ATG_XTT_Cytotoxicity_up>  (32) 
0.0

>  <ATG_Xbp1_CIS_dn>  (32) 
0.0

>  <ATG_Xbp1_CIS_up>  (32) 
0.0

>  <ATG_p53_CIS_dn>  (32) 
0.0

>  <ATG_p53_CIS_up>  (32) 
0.0

>  <BSK_3C_Eselectin_down>  (32) 
1.0

>  <BSK_3C_Eselectin_up>  (32) 
0.0

>  <BSK_3C_HLADR_up>  (32) 
0.0

>  <BSK_3C_ICAM1_down>  (32) 
0.0

>  <BSK_3C_ICAM1_up>  (32) 
0.0

>  <BSK_3C_IL8_down>  (32) 
1.0

>  <BSK_3C_IL8_up>  (32) 
0.0

>  <BSK_3C_MCP1_down>  (32) 
1.0

>  <BSK_3C_MCP1_up>  (32) 
0.0

>  <BSK_3C_MIG_down>  (32) 
0.0

>  <BSK_3C_MIG_up>  (32) 
0.0

>  <BSK_3C_Proliferation_down>  (32) 
1.0

>  <BSK_3C_Proliferation_up>  (32) 
0.0

>  <BSK_3C_SRB_down>  (32) 
1.0

>  <BSK_3C_SRB_up>  (32) 
0.0

>  <BSK_3C_Thrombomodulin_down>  (32) 
0.0

>  <BSK_3C_Thrombomodulin_up>  (32) 
0.0

>  <BSK_3C_TissueFactor_down>  (32) 
0.0

>  <BSK_3C_TissueFactor_up>  (32) 
0.0

>  <BSK_3C_VCAM1_down>  (32) 
0.0

>  <BSK_3C_VCAM1_up>  (32) 
0.0

>  <BSK_3C_Vis_up>  (32) 
0.0

>  <BSK_3C_uPAR_up>  (32) 
0.0

>  <BSK_4H_Eotaxin3_down>  (32) 
0.0

>  <BSK_4H_Eotaxin3_up>  (32) 
0.0

>  <BSK_4H_MCP1_down>  (32) 
1.0

>  <BSK_4H_MCP1_up>  (32) 
0.0

>  <BSK_4H_Pselectin_down>  (32) 
1.0

>  <BSK_4H_Pselectin_up>  (32) 
0.0

>  <BSK_4H_SRB_down>  (32) 
0.0

>  <BSK_4H_SRB_up>  (32) 
0.0

>  <BSK_4H_VCAM1_down>  (32) 
0.0

>  <BSK_4H_VCAM1_up>  (32) 
0.0

>  <BSK_4H_VEGFRII_down>  (32) 
1.0

>  <BSK_4H_VEGFRII_up>  (32) 
0.0

>  <BSK_4H_uPAR_down>  (32) 
0.0

>  <BSK_4H_uPAR_up>  (32) 
0.0

>  <BSK_BE3C_HLADR_down>  (32) 
0.0

>  <BSK_BE3C_HLADR_up>  (32) 
0.0

>  <BSK_BE3C_IL1a_down>  (32) 
0.0

>  <BSK_BE3C_IL1a_up>  (32) 
0.0

>  <BSK_BE3C_IP10_down>  (32) 
0.0

>  <BSK_BE3C_IP10_up>  (32) 
0.0

>  <BSK_BE3C_MIG_down>  (32) 
0.0

>  <BSK_BE3C_MIG_up>  (32) 
0.0

>  <BSK_BE3C_MMP1_down>  (32) 
0.0

>  <BSK_BE3C_MMP1_up>  (32) 
0.0

>  <BSK_BE3C_PAI1_down>  (32) 
0.0

>  <BSK_BE3C_PAI1_up>  (32) 
0.0

>  <BSK_BE3C_SRB_down>  (32) 
0.0

>  <BSK_BE3C_SRB_up>  (32) 
0.0

>  <BSK_BE3C_TGFb1_down>  (32) 
0.0

>  <BSK_BE3C_TGFb1_up>  (32) 
0.0

>  <BSK_BE3C_tPA_down>  (32) 
0.0

>  <BSK_BE3C_tPA_up>  (32) 
0.0

>  <BSK_BE3C_uPAR_down>  (32) 
0.0

>  <BSK_BE3C_uPAR_up>  (32) 
0.0

>  <BSK_BE3C_uPA_down>  (32) 
0.0

>  <BSK_BE3C_uPA_up>  (32) 
0.0

>  <BSK_CASM3C_HLADR_down>  (32) 
0.0

>  <BSK_CASM3C_HLADR_up>  (32) 
0.0

>  <BSK_CASM3C_IL6_down>  (32) 
0.0

>  <BSK_CASM3C_IL6_up>  (32) 
0.0

>  <BSK_CASM3C_IL8_down>  (32) 
0.0

>  <BSK_CASM3C_IL8_up>  (32) 
0.0

>  <BSK_CASM3C_LDLR_down>  (32) 
0.0

>  <BSK_CASM3C_LDLR_up>  (32) 
0.0

>  <BSK_CASM3C_MCP1_down>  (32) 
0.0

>  <BSK_CASM3C_MCP1_up>  (32) 
0.0

>  <BSK_CASM3C_MCSF_down>  (32) 
0.0

>  <BSK_CASM3C_MCSF_up>  (32) 
0.0

>  <BSK_CASM3C_MIG_down>  (32) 
0.0

>  <BSK_CASM3C_MIG_up>  (32) 
0.0

>  <BSK_CASM3C_Proliferation_down>  (32) 
0.0

>  <BSK_CASM3C_Proliferation_up>  (32) 
0.0

>  <BSK_CASM3C_SAA_down>  (32) 
0.0

>  <BSK_CASM3C_SAA_up>  (32) 
0.0

>  <BSK_CASM3C_SRB_down>  (32) 
0.0

>  <BSK_CASM3C_SRB_up>  (32) 
0.0

>  <BSK_CASM3C_Thrombomodulin_down>  (32) 
0.0

>  <BSK_CASM3C_Thrombomodulin_up>  (32) 
1.0

>  <BSK_CASM3C_TissueFactor_down>  (32) 
0.0

>  <BSK_CASM3C_TissueFactor_up>  (32) 
0.0

>  <BSK_CASM3C_VCAM1_down>  (32) 
0.0

>  <BSK_CASM3C_VCAM1_up>  (32) 
0.0

>  <BSK_CASM3C_uPAR_down>  (32) 
0.0

>  <BSK_CASM3C_uPAR_up>  (32) 
0.0

>  <BSK_KF3CT_ICAM1_down>  (32) 
0.0

>  <BSK_KF3CT_ICAM1_up>  (32) 
0.0

>  <BSK_KF3CT_IL1a_down>  (32) 
0.0

>  <BSK_KF3CT_IL1a_up>  (32) 
0.0

>  <BSK_KF3CT_IP10_down>  (32) 
0.0

>  <BSK_KF3CT_IP10_up>  (32) 
0.0

>  <BSK_KF3CT_MCP1_down>  (32) 
0.0

>  <BSK_KF3CT_MCP1_up>  (32) 
0.0

>  <BSK_KF3CT_MMP9_down>  (32) 
0.0

>  <BSK_KF3CT_MMP9_up>  (32) 
0.0

>  <BSK_KF3CT_SRB_down>  (32) 
0.0

>  <BSK_KF3CT_SRB_up>  (32) 
0.0

>  <BSK_KF3CT_TGFb1_down>  (32) 
0.0

>  <BSK_KF3CT_TGFb1_up>  (32) 
0.0

>  <BSK_KF3CT_TIMP2_down>  (32) 
0.0

>  <BSK_KF3CT_TIMP2_up>  (32) 
0.0

>  <BSK_KF3CT_uPA_down>  (32) 
0.0

>  <BSK_KF3CT_uPA_up>  (32) 
0.0

>  <BSK_LPS_CD40_down>  (32) 
1.0

>  <BSK_LPS_CD40_up>  (32) 
0.0

>  <BSK_LPS_Eselectin_down>  (32) 
0.0

>  <BSK_LPS_Eselectin_up>  (32) 
0.0

>  <BSK_LPS_IL1a_down>  (32) 
0.0

>  <BSK_LPS_IL1a_up>  (32) 
0.0

>  <BSK_LPS_IL8_down>  (32) 
1.0

>  <BSK_LPS_IL8_up>  (32) 
0.0

>  <BSK_LPS_MCP1_down>  (32) 
1.0

>  <BSK_LPS_MCP1_up>  (32) 
0.0

>  <BSK_LPS_MCSF_down>  (32) 
1.0

>  <BSK_LPS_MCSF_up>  (32) 
0.0

>  <BSK_LPS_PGE2_down>  (32) 
0.0

>  <BSK_LPS_PGE2_up>  (32) 
0.0

>  <BSK_LPS_SRB_down>  (32) 
0.0

>  <BSK_LPS_SRB_up>  (32) 
0.0

>  <BSK_LPS_TNFa_down>  (32) 
0.0

>  <BSK_LPS_TNFa_up>  (32) 
0.0

>  <BSK_LPS_TissueFactor_down>  (32) 
0.0

>  <BSK_LPS_TissueFactor_up>  (32) 
0.0

>  <BSK_LPS_VCAM1_down>  (32) 
1.0

>  <BSK_LPS_VCAM1_up>  (32) 
0.0

>  <BSK_SAg_CD38_down>  (32) 
1.0

>  <BSK_SAg_CD38_up>  (32) 
0.0

>  <BSK_SAg_CD40_down>  (32) 
1.0

>  <BSK_SAg_CD40_up>  (32) 
0.0

>  <BSK_SAg_CD69_down>  (32) 
0.0

>  <BSK_SAg_CD69_up>  (32) 
0.0

>  <BSK_SAg_Eselectin_down>  (32) 
1.0

>  <BSK_SAg_Eselectin_up>  (32) 
0.0

>  <BSK_SAg_IL8_down>  (32) 
1.0

>  <BSK_SAg_IL8_up>  (32) 
0.0

>  <BSK_SAg_MCP1_down>  (32) 
1.0

>  <BSK_SAg_MCP1_up>  (32) 
0.0

>  <BSK_SAg_MIG_down>  (32) 
0.0

>  <BSK_SAg_MIG_up>  (32) 
0.0

>  <BSK_SAg_PBMCCytotoxicity_down>  (32) 
1.0

>  <BSK_SAg_PBMCCytotoxicity_up>  (32) 
0.0

>  <BSK_SAg_Proliferation_down>  (32) 
1.0

>  <BSK_SAg_Proliferation_up>  (32) 
0.0

>  <BSK_SAg_SRB_down>  (32) 
1.0

>  <BSK_SAg_SRB_up>  (32) 
0.0

>  <BSK_hDFCGF_CollagenIII_down>  (32) 
1.0

>  <BSK_hDFCGF_CollagenIII_up>  (32) 
0.0

>  <BSK_hDFCGF_EGFR_down>  (32) 
0.0

>  <BSK_hDFCGF_EGFR_up>  (32) 
0.0

>  <BSK_hDFCGF_IL8_down>  (32) 
0.0

>  <BSK_hDFCGF_IL8_up>  (32) 
0.0

>  <BSK_hDFCGF_IP10_down>  (32) 
0.0

>  <BSK_hDFCGF_IP10_up>  (32) 
0.0

>  <BSK_hDFCGF_MCSF_down>  (32) 
1.0

>  <BSK_hDFCGF_MCSF_up>  (32) 
0.0

>  <BSK_hDFCGF_MIG_down>  (32) 
0.0

>  <BSK_hDFCGF_MIG_up>  (32) 
0.0

>  <BSK_hDFCGF_MMP1_down>  (32) 
0.0

>  <BSK_hDFCGF_MMP1_up>  (32) 
0.0

>  <BSK_hDFCGF_PAI1_down>  (32) 
0.0

>  <BSK_hDFCGF_PAI1_up>  (32) 
0.0

>  <BSK_hDFCGF_Proliferation_down>  (32) 
1.0

>  <BSK_hDFCGF_Proliferation_up>  (32) 
0.0

>  <BSK_hDFCGF_SRB_down>  (32) 
0.0

>  <BSK_hDFCGF_SRB_up>  (32) 
0.0

>  <BSK_hDFCGF_TIMP1_down>  (32) 
0.0

>  <BSK_hDFCGF_TIMP1_up>  (32) 
0.0

>  <BSK_hDFCGF_VCAM1_down>  (32) 
0.0

>  <BSK_hDFCGF_VCAM1_up>  (32) 
0.0

>  <CEETOX_H295R_11DCORT_dn>  (32) 
0.0

>  <CEETOX_H295R_11DCORT_noMTC_dn>  (32) 
0.0

>  <CEETOX_H295R_11DCORT_noMTC_up>  (32) 
0.0

>  <CEETOX_H295R_11DCORT_up>  (32) 
0.0

>  <CEETOX_H295R_ANDR_dn>  (32) 
0.0

>  <CEETOX_H295R_ANDR_noMTC_dn>  (32) 
0.0

>  <CEETOX_H295R_ANDR_noMTC_up>  (32) 
0.0

>  <CEETOX_H295R_ANDR_up>  (32) 
0.0

>  <CEETOX_H295R_CORTIC_dn>  (32) 
0.0

>  <CEETOX_H295R_CORTIC_noMTC_dn>  (32) 
0.0

>  <CEETOX_H295R_CORTIC_noMTC_up>  (32) 
0.0

>  <CEETOX_H295R_CORTIC_up>  (32) 
0.0

>  <CEETOX_H295R_CORTISOL_dn>  (32) 
0.0

>  <CEETOX_H295R_CORTISOL_noMTC_dn>  (32) 
0.0

>  <CEETOX_H295R_CORTISOL_noMTC_up>  (32) 
0.0

>  <CEETOX_H295R_CORTISOL_up>  (32) 
0.0

>  <CEETOX_H295R_DOC_dn>  (32) 
0.0

>  <CEETOX_H295R_DOC_noMTC_dn>  (32) 
0.0

>  <CEETOX_H295R_DOC_noMTC_up>  (32) 
0.0

>  <CEETOX_H295R_DOC_up>  (32) 
0.0

>  <CEETOX_H295R_ESTRADIOL_dn>  (32) 
0.0

>  <CEETOX_H295R_ESTRADIOL_noMTC_dn>  (32) 
0.0

>  <CEETOX_H295R_ESTRADIOL_noMTC_up>  (32) 
0.0

>  <CEETOX_H295R_ESTRADIOL_up>  (32) 
0.0

>  <CEETOX_H295R_ESTRONE_dn>  (32) 
0.0

>  <CEETOX_H295R_ESTRONE_noMTC_dn>  (32) 
0.0

>  <CEETOX_H295R_ESTRONE_noMTC_up>  (32) 
0.0

>  <CEETOX_H295R_ESTRONE_up>  (32) 
0.0

>  <CEETOX_H295R_MTT_cell_viability_dn>  (32) 
0.0

>  <CEETOX_H295R_MTT_cell_viability_up>  (32) 
1.0

>  <CEETOX_H295R_OHPREG_dn>  (32) 
0.0

>  <CEETOX_H295R_OHPREG_noMTC_dn>  (32) 
0.0

>  <CEETOX_H295R_OHPREG_noMTC_up>  (32) 
0.0

>  <CEETOX_H295R_OHPREG_up>  (32) 
0.0

>  <CEETOX_H295R_OHPROG_dn>  (32) 
0.0

>  <CEETOX_H295R_OHPROG_noMTC_dn>  (32) 
0.0

>  <CEETOX_H295R_OHPROG_noMTC_up>  (32) 
0.0

>  <CEETOX_H295R_OHPROG_up>  (32) 
0.0

>  <CEETOX_H295R_PROG_dn>  (32) 
0.0

>  <CEETOX_H295R_PROG_noMTC_dn>  (32) 
0.0

>  <CEETOX_H295R_PROG_noMTC_up>  (32) 
0.0

>  <CEETOX_H295R_PROG_up>  (32) 
0.0

>  <CEETOX_H295R_TESTO_dn>  (32) 
0.0

>  <CEETOX_H295R_TESTO_noMTC_dn>  (32) 
0.0

>  <CEETOX_H295R_TESTO_noMTC_up>  (32) 
0.0

>  <CEETOX_H295R_TESTO_up>  (32) 
0.0

>  <NVS_ENZ_hAKT2>  (32) 
0.0

>  <NVS_ENZ_hAKT2_Activator>  (32) 
0.0

>  <NVS_ENZ_hBACE>  (32) 
0.0

>  <NVS_ENZ_hBACE_Activator>  (32) 
0.0

>  <NVS_ENZ_hFGFR1>  (32) 
0.0

>  <NVS_ENZ_hFGFR1_Activator>  (32) 
0.0

>  <NVS_ENZ_hSIRT2>  (32) 
0.0

>  <NVS_ENZ_hSIRT2_Activator>  (32) 
0.0

>  <NVS_GPCR_h5HT2A>  (32) 
0.0

>  <NVS_GPCR_rCRF>  (32) 
0.0

>  <NVS_IC_hKhERGCh>  (32) 
0.0

>  <NVS_LGIC_rGABAR_NonSelective>  (32) 
1.0

>  <NVS_NR_hPPARa>  (32) 
0.0

>  <NVS_NR_hPPARg>  (32) 
0.0

>  <NVS_NR_rMR>  (32) 
0.0

>  <NVS_TR_hDAT>  (32) 
1.0

>  <OT_AR_ARSRC1_0480>  (32) 
0.0

>  <OT_AR_ARSRC1_0960>  (32) 
0.0

>  <OT_ER_ERaERa_0480>  (32) 
0.0

>  <OT_ER_ERaERa_1440>  (32) 
0.0

>  <OT_ER_ERaERb_0480>  (32) 
1.0

>  <OT_ER_ERbERb_0480>  (32) 
1.0

>  <OT_ER_ERbERb_1440>  (32) 
0.0

>  <OT_ERa_EREGFP_0480>  (32) 
0.0

>  <TOX21_AP1_BLA_Agonist_ch1>  (32) 
0.0

>  <TOX21_AP1_BLA_Agonist_ch2>  (32) 
0.0

>  <TOX21_AP1_BLA_Agonist_ratio>  (32) 
0.0

>  <TOX21_AP1_BLA_Agonist_viability>  (32) 
0.0

>  <TOX21_ARE_BLA_Agonist_ch1>  (32) 
0.0

>  <TOX21_ARE_BLA_Agonist_ch2>  (32) 
0.0

>  <TOX21_ARE_BLA_agonist_viability>  (32) 
0.0

>  <TOX21_AR_BLA_Agonist_ch1>  (32) 
0.0

>  <TOX21_AR_BLA_Agonist_ch2>  (32) 
1.0

>  <TOX21_AR_BLA_Agonist_ratio>  (32) 
0.0

>  <TOX21_AR_BLA_Antagonist_ch1>  (32) 
0.0

>  <TOX21_AR_BLA_Antagonist_ch2>  (32) 
0.0

>  <TOX21_AR_BLA_Antagonist_ratio>  (32) 
0.0

>  <TOX21_AR_BLA_Antagonist_viability>  (32) 
0.0

>  <TOX21_AR_LUC_MDAKB2_Agonist>  (32) 
0.0

>  <TOX21_AR_LUC_MDAKB2_Agonist_3uM_Nilutamide>  (32) 
0.0

>  <TOX21_AR_LUC_MDAKB2_Agonist_3uM_Nilutamide_viability>  (32) 
0.0

>  <TOX21_AR_LUC_MDAKB2_Antagonist_0.5nM_R1881>  (32) 
0.0

>  <TOX21_AR_LUC_MDAKB2_Antagonist_0.5nM_R1881_viability>  (32) 
0.0

>  <TOX21_AR_LUC_MDAKB2_Antagonist_10nM_R1881>  (32) 
0.0

>  <TOX21_AR_LUC_MDAKB2_Antagonist_10nM_R1881_viability>  (32) 
0.0

>  <TOX21_AhR_LUC_Agonist>  (32) 
1.0

>  <TOX21_Aromatase_Inhibition>  (32) 
0.0

>  <TOX21_Aromatase_Inhibition_viability>  (32) 
0.0

>  <TOX21_AutoFluor_HEK293_Cell_blue>  (32) 
0.0

>  <TOX21_AutoFluor_HEK293_Cell_green>  (32) 
0.0

>  <TOX21_AutoFluor_HEK293_Cell_red>  (32) 
0.0

>  <TOX21_AutoFluor_HEK293_Media_blue>  (32) 
0.0

>  <TOX21_AutoFluor_HEK293_Media_green>  (32) 
0.0

>  <TOX21_AutoFluor_HEK293_Media_red>  (32) 
0.0

>  <TOX21_AutoFluor_HEPG2_Cell_blue>  (32) 
0.0

>  <TOX21_AutoFluor_HEPG2_Cell_green>  (32) 
0.0

>  <TOX21_AutoFluor_HEPG2_Cell_red>  (32) 
0.0

>  <TOX21_AutoFluor_HEPG2_Media_blue>  (32) 
0.0

>  <TOX21_AutoFluor_HEPG2_Media_green>  (32) 
0.0

>  <TOX21_AutoFluor_HEPG2_Media_red>  (32) 
0.0

>  <TOX21_CAR_Agonist>  (32) 
1.0

>  <TOX21_CAR_Antagonist>  (32) 
0.0

>  <TOX21_CAR_Antagonist_viability>  (32) 
0.0

>  <TOX21_CASP3_CHO>  (32) 
0.0

>  <TOX21_CASP3_CHO_viability>  (32) 
0.0

>  <TOX21_CASP3_HEPG2>  (32) 
0.0

>  <TOX21_CASP3_HEPG2_viability>  (32) 
0.0

>  <TOX21_DT40>  (32) 
1.0

>  <TOX21_DT40_100>  (32) 
1.0

>  <TOX21_DT40_657>  (32) 
1.0

>  <TOX21_ELG1_LUC_Agonist>  (32) 
0.0

>  <TOX21_ELG1_LUC_Agonist_viability>  (32) 
0.0

>  <TOX21_ERR_Agonist>  (32) 
0.0

>  <TOX21_ERR_Antagonist>  (32) 
0.0

>  <TOX21_ERa_BLA_Agonist_ch1>  (32) 
0.0

>  <TOX21_ERa_BLA_Agonist_ch2>  (32) 
0.0

>  <TOX21_ERa_BLA_Agonist_ratio>  (32) 
0.0

>  <TOX21_ERa_BLA_Antagonist_ch1>  (32) 
0.0

>  <TOX21_ERa_BLA_Antagonist_ch2>  (32) 
0.0

>  <TOX21_ERa_BLA_Antagonist_ratio>  (32) 
1.0

>  <TOX21_ERa_BLA_Antagonist_viability>  (32) 
0.0

>  <TOX21_ERa_LUC_VM7_Agonist>  (32) 
0.0

>  <TOX21_ERa_LUC_VM7_Agonist_10nM_ICI182780>  (32) 
0.0

>  <TOX21_ERa_LUC_VM7_Agonist_10nM_ICI182780_viability>  (32) 
0.0

>  <TOX21_ERa_LUC_VM7_Antagonist_0.1nM_E2>  (32) 
0.0

>  <TOX21_ERa_LUC_VM7_Antagonist_0.1nM_E2_viability>  (32) 
0.0

>  <TOX21_ERa_LUC_VM7_Antagonist_0.5nM_E2>  (32) 
0.0

>  <TOX21_ERa_LUC_VM7_Antagonist_0.5nM_E2_viability>  (32) 
0.0

>  <TOX21_ERb_BLA_Agonist_ch1>  (32) 
0.0

>  <TOX21_ERb_BLA_Agonist_ch2>  (32) 
0.0

>  <TOX21_ERb_BLA_Agonist_ratio>  (32) 
0.0

>  <TOX21_ERb_BLA_Agonist_viability>  (32) 
0.0

>  <TOX21_ERb_BLA_Antagonist_ch1>  (32) 
0.0

>  <TOX21_ERb_BLA_Antagonist_ch2>  (32) 
0.0

>  <TOX21_ERb_BLA_Antagonist_ratio>  (32) 
0.0

>  <TOX21_ERb_BLA_Antagonist_viability>  (32) 
0.0

>  <TOX21_ESRE_BLA_ch1>  (32) 
0.0

>  <TOX21_ESRE_BLA_ch2>  (32) 
0.0

>  <TOX21_ESRE_BLA_ratio>  (32) 
0.0

>  <TOX21_ESRE_BLA_viability>  (32) 
0.0

>  <TOX21_FXR_BLA_Antagonist_ch1>  (32) 
0.0

>  <TOX21_FXR_BLA_Antagonist_ch2>  (32) 
0.0

>  <TOX21_FXR_BLA_agonist_ch1>  (32) 
0.0

>  <TOX21_FXR_BLA_agonist_ch2>  (32) 
0.0

>  <TOX21_FXR_BLA_agonist_ratio>  (32) 
0.0

>  <TOX21_FXR_BLA_agonist_viability>  (32) 
0.0

>  <TOX21_FXR_BLA_antagonist_ratio>  (32) 
0.0

>  <TOX21_FXR_BLA_antagonist_viability>  (32) 
0.0

>  <TOX21_GR_BLA_Agonist_ch1>  (32) 
0.0

>  <TOX21_GR_BLA_Agonist_ch2>  (32) 
0.0

>  <TOX21_GR_BLA_Agonist_ratio>  (32) 
0.0

>  <TOX21_GR_BLA_Antagonist_ch1>  (32) 
0.0

>  <TOX21_GR_BLA_Antagonist_ch2>  (32) 
0.0

>  <TOX21_GR_BLA_Antagonist_ratio>  (32) 
0.0

>  <TOX21_GR_BLA_Antagonist_viability>  (32) 
0.0

>  <TOX21_H2AX_HTRF_CHO_Agonist_ch1>  (32) 
0.0

>  <TOX21_H2AX_HTRF_CHO_Agonist_ch2>  (32) 
0.0

>  <TOX21_H2AX_HTRF_CHO_Agonist_ratio>  (32) 
0.0

>  <TOX21_H2AX_HTRF_CHO_viability>  (32) 
0.0

>  <TOX21_HDAC_Inhibition>  (32) 
0.0

>  <TOX21_HDAC_Inhibition_viability>  (32) 
0.0

>  <TOX21_HRE_BLA_Agonist_ch1>  (32) 
0.0

>  <TOX21_HRE_BLA_Agonist_ch2>  (32) 
0.0

>  <TOX21_HRE_BLA_Agonist_ratio>  (32) 
0.0

>  <TOX21_HRE_BLA_Agonist_viability>  (32) 
0.0

>  <TOX21_HSE_BLA_agonist_ch1>  (32) 
0.0

>  <TOX21_HSE_BLA_agonist_ch2>  (32) 
0.0

>  <TOX21_HSE_BLA_agonist_ratio>  (32) 
0.0

>  <TOX21_HSE_BLA_agonist_viability>  (32) 
0.0

>  <TOX21_LUC_Biochem>  (32) 
0.0

>  <TOX21_MMP_fitc>  (32) 
0.0

>  <TOX21_MMP_ratio_down>  (32) 
0.0

>  <TOX21_MMP_ratio_up>  (32) 
0.0

>  <TOX21_MMP_rhodamine>  (32) 
0.0

>  <TOX21_MMP_viability>  (32) 
0.0

>  <TOX21_NFkB_BLA_agonist_ch1>  (32) 
0.0

>  <TOX21_NFkB_BLA_agonist_ch2>  (32) 
0.0

>  <TOX21_NFkB_BLA_agonist_ratio>  (32) 
0.0

>  <TOX21_NFkB_BLA_agonist_viability>  (32) 
0.0

>  <TOX21_PGC_ERR_Agonist>  (32) 
0.0

>  <TOX21_PGC_ERR_Antagonist>  (32) 
0.0

>  <TOX21_PGC_ERR_viability>  (32) 
0.0

>  <TOX21_PPARd_BLA_Agonist_viability>  (32) 
0.0

>  <TOX21_PPARd_BLA_Antagonist_ch1>  (32) 
0.0

>  <TOX21_PPARd_BLA_Antagonist_ch2>  (32) 
0.0

>  <TOX21_PPARd_BLA_agonist_ch1>  (32) 
0.0

>  <TOX21_PPARd_BLA_agonist_ch2>  (32) 
0.0

>  <TOX21_PPARd_BLA_agonist_ratio>  (32) 
0.0

>  <TOX21_PPARd_BLA_antagonist_ratio>  (32) 
0.0

>  <TOX21_PPARd_BLA_antagonist_viability>  (32) 
0.0

>  <TOX21_PPARg_BLA_Agonist_ch1>  (32) 
0.0

>  <TOX21_PPARg_BLA_Agonist_ch2>  (32) 
0.0

>  <TOX21_PPARg_BLA_Agonist_ratio>  (32) 
0.0

>  <TOX21_PPARg_BLA_Antagonist_ch1>  (32) 
0.0

>  <TOX21_PPARg_BLA_Antagonist_ch2>  (32) 
0.0

>  <TOX21_PPARg_BLA_antagonist_ratio>  (32) 
0.0

>  <TOX21_PPARg_BLA_antagonist_viability>  (32) 
0.0

>  <TOX21_PR_BLA_Agonist_ch1>  (32) 
0.0

>  <TOX21_PR_BLA_Agonist_ch2>  (32) 
0.0

>  <TOX21_PR_BLA_Agonist_ratio>  (32) 
0.0

>  <TOX21_PR_BLA_Antagonist_ch1>  (32) 
0.0

>  <TOX21_PR_BLA_Antagonist_ch2>  (32) 
0.0

>  <TOX21_PR_BLA_Antagonist_ratio>  (32) 
1.0

>  <TOX21_PR_BLA_Antagonist_viability>  (32) 
0.0

>  <TOX21_PXR_Agonist>  (32) 
0.0

>  <TOX21_PXR_viability>  (32) 
0.0

>  <TOX21_RAR_LUC_Agonist>  (32) 
0.0

>  <TOX21_RAR_LUC_Agonist_viability>  (32) 
0.0

>  <TOX21_RAR_LUC_Antagonist_viability>  (32) 
0.0

>  <TOX21_RORg_LUC_CHO_Antagonist>  (32) 
0.0

>  <TOX21_RORg_LUC_CHO_Antagonist_viability>  (32) 
0.0

>  <TOX21_RT_HEK293_FLO_00hr_viability>  (32) 
0.0

>  <TOX21_RT_HEK293_FLO_08hr_viability>  (32) 
0.0

>  <TOX21_RT_HEK293_FLO_16hr_viability>  (32) 
1.0

>  <TOX21_RT_HEK293_FLO_24hr_viability>  (32) 
0.0

>  <TOX21_RT_HEK293_FLO_32hr_viability>  (32) 
1.0

>  <TOX21_RT_HEK293_FLO_40hr_viability>  (32) 
0.0

>  <TOX21_RT_HEK293_GLO_00hr_viability>  (32) 
0.0

>  <TOX21_RT_HEK293_GLO_08hr_viability>  (32) 
0.0

>  <TOX21_RT_HEK293_GLO_16hr_viability>  (32) 
0.0

>  <TOX21_RT_HEK293_GLO_24hr_viability>  (32) 
0.0

>  <TOX21_RT_HEK293_GLO_32hr_viability>  (32) 
0.0

>  <TOX21_RT_HEK293_GLO_40hr_viability>  (32) 
1.0

>  <TOX21_RT_HEPG2_FLO_00hr_ctrl_viability>  (32) 
0.0

>  <TOX21_RT_HEPG2_FLO_08hr_viability>  (32) 
0.0

>  <TOX21_RT_HEPG2_FLO_16hr_ctrl_viability>  (32) 
0.0

>  <TOX21_RT_HEPG2_FLO_24hr_viability>  (32) 
0.0

>  <TOX21_RT_HEPG2_FLO_32hr_ctrl_viability>  (32) 
0.0

>  <TOX21_RT_HEPG2_GLO_00hr_ctrl_viability>  (32) 
0.0

>  <TOX21_RT_HEPG2_GLO_08hr_ctrl_viability>  (32) 
0.0

>  <TOX21_RT_HEPG2_GLO_16hr_ctrl_viability>  (32) 
0.0

>  <TOX21_RT_HEPG2_GLO_24hr_ctrl_viability>  (32) 
0.0

>  <TOX21_RT_HEPG2_GLO_32hr_ctrl_viability>  (32) 
0.0

>  <TOX21_RT_HEPG2_GLO_40hr_viability>  (32) 
0.0

>  <TOX21_RXR_BLA_Agonist_ch1>  (32) 
0.0

>  <TOX21_RXR_BLA_Agonist_ch2>  (32) 
0.0

>  <TOX21_RXR_BLA_Agonist_ratio>  (32) 
0.0

>  <TOX21_RXR_BLA_Agonist_viability>  (32) 
0.0

>  <TOX21_SBE_BLA_Agonist_ch1>  (32) 
0.0

>  <TOX21_SBE_BLA_Agonist_ch2>  (32) 
0.0

>  <TOX21_SBE_BLA_Agonist_ratio>  (32) 
0.0

>  <TOX21_SBE_BLA_Agonist_viability>  (32) 
0.0

>  <TOX21_SBE_BLA_Antagonist_ch1>  (32) 
0.0

>  <TOX21_SBE_BLA_Antagonist_ch2>  (32) 
0.0

>  <TOX21_SBE_BLA_Antagonist_ratio>  (32) 
0.0

>  <TOX21_SBE_BLA_Antagonist_viability>  (32) 
0.0

>  <TOX21_SSH_3T3_GLI3_Agonist>  (32) 
0.0

>  <TOX21_SSH_3T3_GLI3_Agonist_viability>  (32) 
0.0

>  <TOX21_SSH_3T3_GLI3_Antagonist>  (32) 
0.0

>  <TOX21_SSH_3T3_GLI3_Antagonist_viability>  (32) 
0.0

>  <TOX21_TRHR_HEK293_Agonist>  (32) 
0.0

>  <TOX21_TRHR_HEK293_Antagonist>  (32) 
0.0

>  <TOX21_TR_LUC_GH3_Agonist>  (32) 
0.0

>  <TOX21_TR_LUC_GH3_Antagonist>  (32) 
0.0

>  <TOX21_TR_LUC_GH3_Antagonist_viability>  (32) 
0.0

>  <TOX21_TSHR_Agonist_ch2>  (32) 
0.0

>  <TOX21_TSHR_Antagonist_ch2>  (32) 
0.0

>  <TOX21_TSHR_Antagonist_ratio>  (32) 
0.0

>  <TOX21_TSHR_HTRF_Agonist_ch1>  (32) 
0.0

>  <TOX21_TSHR_HTRF_Antagonist_ch1>  (32) 
0.0

>  <TOX21_TSHR_wt_HTRF_ch1>  (32) 
0.0

>  <TOX21_TSHR_wt_ch2>  (32) 
0.0

>  <TOX21_TSHR_wt_ratio>  (32) 
0.0

>  <TOX21_VDR_BLA_Agonist_viability>  (32) 
0.0

>  <TOX21_VDR_BLA_Antagonist_ch1>  (32) 
0.0

>  <TOX21_VDR_BLA_Antagonist_ch2>  (32) 
0.0

>  <TOX21_VDR_BLA_agonist_ch1>  (32) 
0.0

>  <TOX21_VDR_BLA_agonist_ch2>  (32) 
0.0

>  <TOX21_VDR_BLA_agonist_ratio>  (32) 
0.0

>  <TOX21_VDR_BLA_antagonist_ratio>  (32) 
0.0

>  <TOX21_VDR_BLA_antagonist_viability>  (32) 
0.0

>  <TOX21_p53_BLA_p1_ch1>  (32) 
0.0

>  <TOX21_p53_BLA_p1_ch2>  (32) 
0.0

>  <TOX21_p53_BLA_p1_ratio>  (32) 
0.0

>  <TOX21_p53_BLA_p1_viability>  (32) 
0.0

>  <TOX21_p53_BLA_p2_ch1>  (32) 
0.0

>  <TOX21_p53_BLA_p2_ch2>  (32) 
0.0

>  <TOX21_p53_BLA_p2_ratio>  (32) 
0.0

>  <TOX21_p53_BLA_p2_viability>  (32) 
0.0

>  <TOX21_p53_BLA_p3_ch1>  (32) 
0.0

>  <TOX21_p53_BLA_p3_ch2>  (32) 
0.0

>  <TOX21_p53_BLA_p3_ratio>  (32) 
0.0

>  <TOX21_p53_BLA_p4_ch1>  (32) 
0.0

>  <TOX21_p53_BLA_p4_ch2>  (32) 
0.0

>  <TOX21_p53_BLA_p4_ratio>  (32) 
0.0

>  <TOX21_p53_BLA_p4_viability>  (32) 
0.0

>  <TOX21_p53_BLA_p5_ch1>  (32) 
0.0

>  <TOX21_p53_BLA_p5_ch2>  (32) 
0.0

>  <TOX21_p53_BLA_p5_ratio>  (32) 
0.0

>  <TOX21_p53_BLA_p5_viability>  (32) 
0.0

>  <Tanguay_ZF_120hpf_AXIS_up>  (32) 
0.0

>  <Tanguay_ZF_120hpf_ActivityScore>  (32) 
0.0

>  <Tanguay_ZF_120hpf_BRAI_up>  (32) 
0.0

>  <Tanguay_ZF_120hpf_CFIN_up>  (32) 
0.0

>  <Tanguay_ZF_120hpf_CIRC_up>  (32) 
0.0

>  <Tanguay_ZF_120hpf_EYE_up>  (32) 
0.0

>  <Tanguay_ZF_120hpf_JAW_up>  (32) 
0.0

>  <Tanguay_ZF_120hpf_MORT_up>  (32) 
0.0

>  <Tanguay_ZF_120hpf_NC_up>  (32) 
0.0

>  <Tanguay_ZF_120hpf_OTIC_up>  (32) 
0.0

>  <Tanguay_ZF_120hpf_PE_up>  (32) 
0.0

>  <Tanguay_ZF_120hpf_PFIN_up>  (32) 
0.0

>  <Tanguay_ZF_120hpf_PIG_up>  (32) 
0.0

>  <Tanguay_ZF_120hpf_SNOU_up>  (32) 
0.0

>  <Tanguay_ZF_120hpf_SOMI_up>  (32) 
0.0

>  <Tanguay_ZF_120hpf_SWIM_up>  (32) 
0.0

>  <Tanguay_ZF_120hpf_TRUN_up>  (32) 
0.0

>  <Tanguay_ZF_120hpf_TR_up>  (32) 
0.0

>  <Tanguay_ZF_120hpf_YSE_up>  (32) 
0.0

>  <UPITT_HCI_U2OS_AR_TIF2_Nucleoli_Agonist>  (32) 
0.0

>  <UPITT_HCI_U2OS_AR_TIF2_Nucleoli_Antagonist>  (32) 
0.0

>  <UPITT_HCI_U2OS_AR_TIF2_Nucleoli_Cytoplasm_Ratio_Agonist>  (32) 
0.0

>  <UPITT_HCI_U2OS_AR_TIF2_Nucleoli_Cytoplasm_Ratio_Antagonist>  (32) 
0.0

>  <NVS_NR_mERa>  (32) 
0

$$$$

     RDKit          3D

 30 32  0  0  0  0  0  0  0  0999 V2000
    0.0000    0.0000    0.0000 C   0  0  0  0  0  0  0  0  0  0  0  0
    0.0000    0.0000    0.0000 C   0  0  0  0  0  0  0  0  0  0  0  0
    0.0000    0.0000    0.0000 C   0  0  0  0  0  0  0  0  0  0  0  0
    0.0000    0.0000    0.0000 C   0  0  0  0  0  0  0  0  0  0  0  0
    0.0000    0.0000    0.0000 C   0  0  0  0  0  0  0  0  0  0  0  0
    0.0000    0.0000    0.0000 C   0  0  0  0  0  0  0  0  0  0  0  0
    0.0000    0.0000    0.0000 C   0  0  0  0  0  0  0  0  0  0  0  0
    0.0000    0.0000    0.0000 C   0  0  0  0  0  0  0  0  0  0  0  0
    0.0000    0.0000    0.0000 C   0  0  0  0  0  0  0  0  0  0  0  0
    0.0000    0.0000    0.0000 C   0  0  0  0  0  0  0  0  0  0  0  0
    0.0000    0.0000    0.0000 Cl  0  0  0  0  0  0  0  0  0  0  0  0
    0.0000    0.0000    0.0000 C   0  0  0  0  0  0  0  0  0  0  0  0
    0.0000    0.0000    0.0000 O   0  0  0  0  0  0  0  0  0  0  0  0
    0.0000    0.0000    0.0000 O   0  0  0  0  0  0  0  0  0  0  0  0
    0.0000    0.0000    0.0000 C   0  0  0  0  0  0  0  0  0  0  0  0
    0.0000    0.0000    0.0000 C   0  0  0  0  0  0  0  0  0  0  0  0
    0.0000    0.0000    0.0000 N   0  0  0  0  0  0  0  0  0  0  0  0
    0.0000    0.0000    0.0000 C   0  0  0  0  0  0  0  0  0  0  0  0
    0.0000    0.0000    0.0000 C   0  0  0  0  0  0  0  0  0  0  0  0
    0.0000    0.0000    0.0000 C   0  0  0  0  0  0  0  0  0  0  0  0
    0.0000    0.0000    0.0000 C   0  0  0  0  0  0  0  0  0  0  0  0
    0.0000    0.0000    0.0000 C   0  0  0  0  0  0  0  0  0  0  0  0
    0.0000    0.0000    0.0000 C   0  0  0  0  0  0  0  0  0  0  0  0
    0.0000    0.0000    0.0000 O   0  0  0  0  0  0  0  0  0  0  0  0
    0.0000    0.0000    0.0000 C   0  0  0  0  0  0  0  0  0  0  0  0
    0.0000    0.0000    0.0000 C   0  0  0  0  0  0  0  0  0  0  0  0
    0.0000    0.0000    0.0000 C   0  0  0  0  0  0  0  0  0  0  0  0
    0.0000    0.0000    0.0000 C   0  0  0  0  0  0  0  0  0  0  0  0
    0.0000    0.0000    0.0000 C   0  0  0  0  0  0  0  0  0  0  0  0
    0.0000    0.0000    0.0000 C   0  0  0  0  0  0  0  0  0  0  0  0
  1  2  1  0
  2  3  1  0
  2  4  1  0
  4  5  1  0
  5  6  2  0
  6  7  1  0
  7  8  2  0
  8  9  1  0
  9 10  2  0
  8 11  1  0
  4 12  1  0
 12 13  2  0
 12 14  1  0
 14 15  1  0
 15 16  1  0
 16 17  3  0
 15 18  1  0
 18 19  2  0
 19 20  1  0
 20 21  2  0
 21 22  1  0
 22 23  2  0
 20 24  1  0
 24 25  1  0
 25 26  2  0
 26 27  1  0
 27 28  2  0
 28 29  1  0
 29 30  2  0
 10  5  1  0
 23 18  1  0
 30 25  1  0
M  END
>  <CASRN>  (33) 
51630-58-1

>  <Name>  (33) 
Fenvalerate

>  <Active>  (33) 
0

>  <Inactive>  (33) 
2

>  <Bioactivity>  (33) 
Inactive

>  <Min LEL>  (33) 
nan

>  <Max HDT>  (33) 
80.0

>  <Class>  (33) 
0

>  <Code>  (33) 
C51630581

>  <OT_ER_ERaERb_1440>  (33) 
0.0

>  <OT_FXR_FXRSRC1_0480>  (33) 
0.0

>  <OT_PPARg_PPARgSRC1_1440>  (33) 
0.0

>  <OT_FXR_FXRSRC1_1440>  (33) 
0.0

>  <OT_NURR1_NURR1RXRa_0480>  (33) 
0.0

>  <OT_NURR1_NURR1RXRa_1440>  (33) 
0.0

>  <OT_PPARg_PPARgSRC1_0480>  (33) 
0.0

>  <OT_AR_ARELUC_AG_1440>  (33) 
0.0

>  <OT_ERa_EREGFP_0120>  (33) 
0.0

>  <ATG_CAR_TRANS_up>  (33) 
0.0

>  <ATG_E2F_CIS_dn>  (33) 
0.0

>  <ATG_EGR_CIS_up>  (33) 
0.0

>  <ATG_ERa_TRANS_dn>  (33) 
0.0

>  <ATG_ERa_TRANS_up>  (33) 
0.0

>  <ATG_FXR_TRANS_dn>  (33) 
0.0

>  <ATG_GLI_CIS_dn>  (33) 
0.0

>  <ATG_GRE_CIS_up>  (33) 
0.0

>  <ATG_LXRa_TRANS_dn>  (33) 
0.0

>  <ATG_LXRa_TRANS_up>  (33) 
0.0

>  <ATG_NRF1_CIS_up>  (33) 
0.0

>  <ATG_NURR1_TRANS_up>  (33) 
0.0

>  <ATG_Sox_CIS_dn>  (33) 
0.0

>  <ATG_Sox_CIS_up>  (33) 
0.0

>  <ATG_Sp1_CIS_up>  (33) 
0.0

>  <ATG_TGFb_CIS_up>  (33) 
0.0

>  <TOX21_ARE_BLA_agonist_ratio>  (33) 
0.0

>  <TOX21_RAR_LUC_Antagonist>  (33) 
0.0

>  <ATG_LXRb_TRANS_dn>  (33) 
0.0

>  <ATG_CAR_TRANS_dn>  (33) 
0.0

>  <ATG_BRE_CIS_dn>  (33) 
0.0

>  <ATG_E2F_CIS_up>  (33) 
0.0

>  <TOX21_TSHR_Agonist_ratio>  (33) 
0.0

>  <ACEA_ER_80hr>  (33) 
0.0

>  <TOX21_CAR_Agonist_viabillity>  (33) 
0.0

>  <TOX21_PR_BLA_Agonist_viability>  (33) 
0.0

>  <TOX21_RT_HEPG2_FLO_40hr_ctrl_viability>  (33) 
0.0

>  <TOX21_AhR_LUC_Agonist_viability>  (33) 
0.0

>  <TOX21_ERR_viability>  (33) 
0.0

>  <TOX21_p53_BLA_p3_viability>  (33) 
0.0

>  <NVS_NR_hER>  (33) 
0.0

>  <NVS_NR_cAR>  (33) 
0.0

>  <NVS_NR_hPR>  (33) 
0.0

>  <BSK_3C_HLADR_down>  (33) 
1.0

>  <BSK_3C_Vis_down>  (33) 
0.0

>  <BSK_3C_uPAR_down>  (33) 
0.0

>  <NVS_NR_rAR>  (33) 
0.0

>  <NVS_NR_hGR>  (33) 
1.0

>  <NVS_NR_hAR>  (33) 
0.0

>  <ACEA_AR_agonist_80hr>  (33) 
0.0

>  <ACEA_AR_agonist_AUC_viability>  (33) 
1.0

>  <ACEA_AR_antagonist_80hr>  (33) 
1.0

>  <ACEA_AR_antagonist_AUC_viability>  (33) 
1.0

>  <ACEA_ER_AUC_viability>  (33) 
0.0

>  <ATG_AP_1_CIS_dn>  (33) 
0.0

>  <ATG_AP_1_CIS_up>  (33) 
0.0

>  <ATG_AP_2_CIS_dn>  (33) 
0.0

>  <ATG_AP_2_CIS_up>  (33) 
0.0

>  <ATG_AR_TRANS_dn>  (33) 
0.0

>  <ATG_AR_TRANS_up>  (33) 
0.0

>  <ATG_Ahr_CIS_dn>  (33) 
0.0

>  <ATG_Ahr_CIS_up>  (33) 
0.0

>  <ATG_BRE_CIS_up>  (33) 
0.0

>  <ATG_CMV_CIS_dn>  (33) 
0.0

>  <ATG_CMV_CIS_up>  (33) 
0.0

>  <ATG_CRE_CIS_dn>  (33) 
0.0

>  <ATG_CRE_CIS_up>  (33) 
0.0

>  <ATG_C_EBP_CIS_dn>  (33) 
0.0

>  <ATG_C_EBP_CIS_up>  (33) 
0.0

>  <ATG_DR4_LXR_CIS_dn>  (33) 
1.0

>  <ATG_DR4_LXR_CIS_up>  (33) 
0.0

>  <ATG_DR5_CIS_dn>  (33) 
0.0

>  <ATG_DR5_CIS_up>  (33) 
1.0

>  <ATG_EGR_CIS_dn>  (33) 
0.0

>  <ATG_ERE_CIS_dn>  (33) 
0.0

>  <ATG_ERE_CIS_up>  (33) 
0.0

>  <ATG_ERRa_TRANS_dn>  (33) 
0.0

>  <ATG_ERRa_TRANS_up>  (33) 
0.0

>  <ATG_ERRg_TRANS_dn>  (33) 
0.0

>  <ATG_ERRg_TRANS_up>  (33) 
0.0

>  <ATG_E_Box_CIS_dn>  (33) 
0.0

>  <ATG_E_Box_CIS_up>  (33) 
0.0

>  <ATG_Ets_CIS_dn>  (33) 
0.0

>  <ATG_Ets_CIS_up>  (33) 
0.0

>  <ATG_FXR_TRANS_up>  (33) 
0.0

>  <ATG_FoxA2_CIS_dn>  (33) 
0.0

>  <ATG_FoxA2_CIS_up>  (33) 
0.0

>  <ATG_FoxO_CIS_dn>  (33) 
0.0

>  <ATG_FoxO_CIS_up>  (33) 
0.0

>  <ATG_GAL4_TRANS_dn>  (33) 
0.0

>  <ATG_GAL4_TRANS_up>  (33) 
0.0

>  <ATG_GATA_CIS_dn>  (33) 
0.0

>  <ATG_GATA_CIS_up>  (33) 
0.0

>  <ATG_GLI_CIS_up>  (33) 
0.0

>  <ATG_GRE_CIS_dn>  (33) 
0.0

>  <ATG_GR_TRANS_dn>  (33) 
0.0

>  <ATG_GR_TRANS_up>  (33) 
0.0

>  <ATG_HIF1a_CIS_dn>  (33) 
0.0

>  <ATG_HIF1a_CIS_up>  (33) 
0.0

>  <ATG_HNF4a_TRANS_dn>  (33) 
0.0

>  <ATG_HNF4a_TRANS_up>  (33) 
0.0

>  <ATG_HNF6_CIS_dn>  (33) 
0.0

>  <ATG_HNF6_CIS_up>  (33) 
0.0

>  <ATG_HSE_CIS_dn>  (33) 
0.0

>  <ATG_HSE_CIS_up>  (33) 
0.0

>  <ATG_IR1_CIS_dn>  (33) 
0.0

>  <ATG_IR1_CIS_up>  (33) 
0.0

>  <ATG_ISRE_CIS_dn>  (33) 
0.0

>  <ATG_ISRE_CIS_up>  (33) 
0.0

>  <ATG_LXRb_TRANS_up>  (33) 
0.0

>  <ATG_MRE_CIS_dn>  (33) 
0.0

>  <ATG_MRE_CIS_up>  (33) 
0.0

>  <ATG_M_06_CIS_dn>  (33) 
0.0

>  <ATG_M_06_CIS_up>  (33) 
0.0

>  <ATG_M_06_TRANS_dn>  (33) 
0.0

>  <ATG_M_06_TRANS_up>  (33) 
0.0

>  <ATG_M_19_CIS_dn>  (33) 
0.0

>  <ATG_M_19_CIS_up>  (33) 
0.0

>  <ATG_M_19_TRANS_dn>  (33) 
0.0

>  <ATG_M_19_TRANS_up>  (33) 
0.0

>  <ATG_M_32_CIS_dn>  (33) 
0.0

>  <ATG_M_32_CIS_up>  (33) 
0.0

>  <ATG_M_32_TRANS_dn>  (33) 
0.0

>  <ATG_M_32_TRANS_up>  (33) 
0.0

>  <ATG_M_61_CIS_dn>  (33) 
0.0

>  <ATG_M_61_CIS_up>  (33) 
0.0

>  <ATG_M_61_TRANS_dn>  (33) 
0.0

>  <ATG_M_61_TRANS_up>  (33) 
0.0

>  <ATG_Myb_CIS_dn>  (33) 
0.0

>  <ATG_Myb_CIS_up>  (33) 
0.0

>  <ATG_Myc_CIS_dn>  (33) 
0.0

>  <ATG_Myc_CIS_up>  (33) 
0.0

>  <ATG_NFI_CIS_dn>  (33) 
0.0

>  <ATG_NFI_CIS_up>  (33) 
0.0

>  <ATG_NF_kB_CIS_dn>  (33) 
0.0

>  <ATG_NF_kB_CIS_up>  (33) 
0.0

>  <ATG_NRF1_CIS_dn>  (33) 
0.0

>  <ATG_NRF2_ARE_CIS_dn>  (33) 
0.0

>  <ATG_NRF2_ARE_CIS_up>  (33) 
0.0

>  <ATG_NURR1_TRANS_dn>  (33) 
0.0

>  <ATG_Oct_MLP_CIS_dn>  (33) 
0.0

>  <ATG_Oct_MLP_CIS_up>  (33) 
0.0

>  <ATG_PBREM_CIS_dn>  (33) 
0.0

>  <ATG_PBREM_CIS_up>  (33) 
0.0

>  <ATG_PPARa_TRANS_dn>  (33) 
0.0

>  <ATG_PPARa_TRANS_up>  (33) 
0.0

>  <ATG_PPARd_TRANS_dn>  (33) 
0.0

>  <ATG_PPARd_TRANS_up>  (33) 
0.0

>  <ATG_PPARg_TRANS_dn>  (33) 
0.0

>  <ATG_PPARg_TRANS_up>  (33) 
0.0

>  <ATG_PPRE_CIS_dn>  (33) 
0.0

>  <ATG_PPRE_CIS_up>  (33) 
0.0

>  <ATG_PXRE_CIS_dn>  (33) 
0.0

>  <ATG_PXRE_CIS_up>  (33) 
1.0

>  <ATG_PXR_TRANS_dn>  (33) 
0.0

>  <ATG_PXR_TRANS_up>  (33) 
1.0

>  <ATG_Pax6_CIS_dn>  (33) 
0.0

>  <ATG_Pax6_CIS_up>  (33) 
0.0

>  <ATG_RARa_TRANS_dn>  (33) 
0.0

>  <ATG_RARa_TRANS_up>  (33) 
0.0

>  <ATG_RARb_TRANS_dn>  (33) 
0.0

>  <ATG_RARb_TRANS_up>  (33) 
0.0

>  <ATG_RARg_TRANS_dn>  (33) 
0.0

>  <ATG_RARg_TRANS_up>  (33) 
0.0

>  <ATG_RORE_CIS_dn>  (33) 
0.0

>  <ATG_RORE_CIS_up>  (33) 
0.0

>  <ATG_RORb_TRANS_dn>  (33) 
0.0

>  <ATG_RORb_TRANS_up>  (33) 
0.0

>  <ATG_RORg_TRANS_dn>  (33) 
0.0

>  <ATG_RORg_TRANS_up>  (33) 
0.0

>  <ATG_RXRa_TRANS_dn>  (33) 
0.0

>  <ATG_RXRa_TRANS_up>  (33) 
0.0

>  <ATG_RXRb_TRANS_dn>  (33) 
0.0

>  <ATG_RXRb_TRANS_up>  (33) 
0.0

>  <ATG_SREBP_CIS_dn>  (33) 
0.0

>  <ATG_SREBP_CIS_up>  (33) 
0.0

>  <ATG_STAT3_CIS_dn>  (33) 
0.0

>  <ATG_STAT3_CIS_up>  (33) 
0.0

>  <ATG_Sp1_CIS_dn>  (33) 
0.0

>  <ATG_TAL_CIS_dn>  (33) 
0.0

>  <ATG_TAL_CIS_up>  (33) 
0.0

>  <ATG_TA_CIS_dn>  (33) 
0.0

>  <ATG_TA_CIS_up>  (33) 
0.0

>  <ATG_TCF_b_cat_CIS_dn>  (33) 
0.0

>  <ATG_TCF_b_cat_CIS_up>  (33) 
0.0

>  <ATG_TGFb_CIS_dn>  (33) 
0.0

>  <ATG_THRa1_TRANS_dn>  (33) 
0.0

>  <ATG_THRa1_TRANS_up>  (33) 
0.0

>  <ATG_VDRE_CIS_dn>  (33) 
0.0

>  <ATG_VDRE_CIS_up>  (33) 
1.0

>  <ATG_VDR_TRANS_dn>  (33) 
0.0

>  <ATG_VDR_TRANS_up>  (33) 
0.0

>  <ATG_XTT_Cytotoxicity_up>  (33) 
0.0

>  <ATG_Xbp1_CIS_dn>  (33) 
0.0

>  <ATG_Xbp1_CIS_up>  (33) 
0.0

>  <ATG_p53_CIS_dn>  (33) 
0.0

>  <ATG_p53_CIS_up>  (33) 
0.0

>  <CEETOX_H295R_11DCORT_dn>  (33) 
1.0

>  <CEETOX_H295R_11DCORT_up>  (33) 
0.0

>  <CEETOX_H295R_ANDR_dn>  (33) 
0.0

>  <CEETOX_H295R_ANDR_up>  (33) 
0.0

>  <CEETOX_H295R_CORTIC_dn>  (33) 
0.0

>  <CEETOX_H295R_CORTIC_up>  (33) 
0.0

>  <CEETOX_H295R_CORTISOL_dn>  (33) 
1.0

>  <CEETOX_H295R_CORTISOL_up>  (33) 
0.0

>  <CEETOX_H295R_DOC_dn>  (33) 
0.0

>  <CEETOX_H295R_DOC_up>  (33) 
0.0

>  <CEETOX_H295R_ESTRADIOL_dn>  (33) 
0.0

>  <CEETOX_H295R_ESTRADIOL_up>  (33) 
0.0

>  <CEETOX_H295R_ESTRONE_dn>  (33) 
0.0

>  <CEETOX_H295R_ESTRONE_up>  (33) 
0.0

>  <CEETOX_H295R_MTT_cell_viability_dn>  (33) 
0.0

>  <CEETOX_H295R_MTT_cell_viability_up>  (33) 
0.0

>  <CEETOX_H295R_OHPREG_dn>  (33) 
1.0

>  <CEETOX_H295R_OHPREG_up>  (33) 
0.0

>  <CEETOX_H295R_OHPROG_dn>  (33) 
1.0

>  <CEETOX_H295R_OHPROG_up>  (33) 
0.0

>  <CEETOX_H295R_PROG_dn>  (33) 
1.0

>  <CEETOX_H295R_PROG_up>  (33) 
0.0

>  <CEETOX_H295R_TESTO_dn>  (33) 
0.0

>  <CEETOX_H295R_TESTO_up>  (33) 
0.0

>  <NVS_ADME_hCYP2C18>  (33) 
0.0

>  <NVS_ADME_hCYP2C18_Activator>  (33) 
0.0

>  <NVS_GPCR_rTRH>  (33) 
0.0

>  <NVS_MP_hPBR>  (33) 
0.0

>  <NVS_NR_hPPARg>  (33) 
0.0

>  <NVS_NR_hPXR>  (33) 
0.0

>  <OT_AR_ARSRC1_0480>  (33) 
0.0

>  <OT_AR_ARSRC1_0960>  (33) 
0.0

>  <OT_ER_ERaERa_0480>  (33) 
0.0

>  <OT_ER_ERaERa_1440>  (33) 
0.0

>  <OT_ER_ERaERb_0480>  (33) 
0.0

>  <OT_ER_ERbERb_0480>  (33) 
0.0

>  <OT_ER_ERbERb_1440>  (33) 
0.0

>  <OT_ERa_EREGFP_0480>  (33) 
0.0

>  <TOX21_AP1_BLA_Agonist_ch1>  (33) 
1.0

>  <TOX21_AP1_BLA_Agonist_ch2>  (33) 
0.0

>  <TOX21_AP1_BLA_Agonist_ratio>  (33) 
0.0

>  <TOX21_AP1_BLA_Agonist_viability>  (33) 
0.0

>  <TOX21_ARE_BLA_Agonist_ch1>  (33) 
0.0

>  <TOX21_ARE_BLA_Agonist_ch2>  (33) 
0.0

>  <TOX21_ARE_BLA_agonist_viability>  (33) 
0.0

>  <TOX21_AR_BLA_Agonist_ch1>  (33) 
0.0

>  <TOX21_AR_BLA_Agonist_ch2>  (33) 
0.0

>  <TOX21_AR_BLA_Agonist_ratio>  (33) 
1.0

>  <TOX21_AR_BLA_Antagonist_ch1>  (33) 
0.0

>  <TOX21_AR_BLA_Antagonist_ch2>  (33) 
0.0

>  <TOX21_AR_BLA_Antagonist_ratio>  (33) 
1.0

>  <TOX21_AR_BLA_Antagonist_viability>  (33) 
1.0

>  <TOX21_AR_LUC_MDAKB2_Agonist>  (33) 
0.0

>  <TOX21_AR_LUC_MDAKB2_Agonist_3uM_Nilutamide>  (33) 
1.0

>  <TOX21_AR_LUC_MDAKB2_Agonist_3uM_Nilutamide_viability>  (33) 
0.0

>  <TOX21_AR_LUC_MDAKB2_Antagonist_0.5nM_R1881>  (33) 
0.0

>  <TOX21_AR_LUC_MDAKB2_Antagonist_0.5nM_R1881_viability>  (33) 
0.0

>  <TOX21_AR_LUC_MDAKB2_Antagonist_10nM_R1881>  (33) 
0.0

>  <TOX21_AR_LUC_MDAKB2_Antagonist_10nM_R1881_viability>  (33) 
0.0

>  <TOX21_AhR_LUC_Agonist>  (33) 
0.0

>  <TOX21_Aromatase_Inhibition>  (33) 
1.0

>  <TOX21_Aromatase_Inhibition_viability>  (33) 
0.0

>  <TOX21_AutoFluor_HEK293_Cell_blue>  (33) 
0.0

>  <TOX21_AutoFluor_HEK293_Cell_green>  (33) 
0.0

>  <TOX21_AutoFluor_HEK293_Cell_red>  (33) 
0.0

>  <TOX21_AutoFluor_HEK293_Media_blue>  (33) 
0.0

>  <TOX21_AutoFluor_HEK293_Media_green>  (33) 
0.0

>  <TOX21_AutoFluor_HEK293_Media_red>  (33) 
0.0

>  <TOX21_AutoFluor_HEPG2_Cell_blue>  (33) 
0.0

>  <TOX21_AutoFluor_HEPG2_Cell_green>  (33) 
0.0

>  <TOX21_AutoFluor_HEPG2_Cell_red>  (33) 
0.0

>  <TOX21_AutoFluor_HEPG2_Media_blue>  (33) 
0.0

>  <TOX21_AutoFluor_HEPG2_Media_green>  (33) 
0.0

>  <TOX21_AutoFluor_HEPG2_Media_red>  (33) 
0.0

>  <TOX21_CAR_Agonist>  (33) 
0.0

>  <TOX21_CAR_Antagonist>  (33) 
1.0

>  <TOX21_CAR_Antagonist_viability>  (33) 
0.0

>  <TOX21_CASP3_CHO>  (33) 
0.0

>  <TOX21_CASP3_CHO_viability>  (33) 
1.0

>  <TOX21_CASP3_HEPG2>  (33) 
0.0

>  <TOX21_CASP3_HEPG2_viability>  (33) 
0.0

>  <TOX21_DT40>  (33) 
1.0

>  <TOX21_DT40_100>  (33) 
1.0

>  <TOX21_DT40_657>  (33) 
1.0

>  <TOX21_ELG1_LUC_Agonist>  (33) 
0.0

>  <TOX21_ELG1_LUC_Agonist_viability>  (33) 
0.0

>  <TOX21_ERR_Agonist>  (33) 
0.0

>  <TOX21_ERR_Antagonist>  (33) 
1.0

>  <TOX21_ERa_BLA_Agonist_ch1>  (33) 
0.0

>  <TOX21_ERa_BLA_Agonist_ch2>  (33) 
0.0

>  <TOX21_ERa_BLA_Agonist_ratio>  (33) 
0.0

>  <TOX21_ERa_BLA_Antagonist_ch1>  (33) 
0.0

>  <TOX21_ERa_BLA_Antagonist_ch2>  (33) 
0.0

>  <TOX21_ERa_BLA_Antagonist_ratio>  (33) 
0.0

>  <TOX21_ERa_BLA_Antagonist_viability>  (33) 
0.0

>  <TOX21_ERa_LUC_VM7_Agonist>  (33) 
1.0

>  <TOX21_ERa_LUC_VM7_Agonist_10nM_ICI182780>  (33) 
0.0

>  <TOX21_ERa_LUC_VM7_Agonist_10nM_ICI182780_viability>  (33) 
0.0

>  <TOX21_ERa_LUC_VM7_Antagonist_0.1nM_E2>  (33) 
0.0

>  <TOX21_ERa_LUC_VM7_Antagonist_0.1nM_E2_viability>  (33) 
0.0

>  <TOX21_ERa_LUC_VM7_Antagonist_0.5nM_E2>  (33) 
0.0

>  <TOX21_ERa_LUC_VM7_Antagonist_0.5nM_E2_viability>  (33) 
0.0

>  <TOX21_ERb_BLA_Agonist_ch1>  (33) 
0.0

>  <TOX21_ERb_BLA_Agonist_ch2>  (33) 
0.0

>  <TOX21_ERb_BLA_Agonist_ratio>  (33) 
0.0

>  <TOX21_ERb_BLA_Agonist_viability>  (33) 
0.0

>  <TOX21_ERb_BLA_Antagonist_ch1>  (33) 
0.0

>  <TOX21_ERb_BLA_Antagonist_ch2>  (33) 
0.0

>  <TOX21_ERb_BLA_Antagonist_ratio>  (33) 
1.0

>  <TOX21_ERb_BLA_Antagonist_viability>  (33) 
0.0

>  <TOX21_ESRE_BLA_ch1>  (33) 
1.0

>  <TOX21_ESRE_BLA_ch2>  (33) 
0.0

>  <TOX21_ESRE_BLA_ratio>  (33) 
0.0

>  <TOX21_ESRE_BLA_viability>  (33) 
0.0

>  <TOX21_FXR_BLA_Antagonist_ch1>  (33) 
0.0

>  <TOX21_FXR_BLA_Antagonist_ch2>  (33) 
0.0

>  <TOX21_FXR_BLA_agonist_ch1>  (33) 
0.0

>  <TOX21_FXR_BLA_agonist_ch2>  (33) 
0.0

>  <TOX21_FXR_BLA_agonist_ratio>  (33) 
0.0

>  <TOX21_FXR_BLA_agonist_viability>  (33) 
0.0

>  <TOX21_FXR_BLA_antagonist_ratio>  (33) 
1.0

>  <TOX21_FXR_BLA_antagonist_viability>  (33) 
0.0

>  <TOX21_GR_BLA_Agonist_ch1>  (33) 
0.0

>  <TOX21_GR_BLA_Agonist_ch2>  (33) 
0.0

>  <TOX21_GR_BLA_Agonist_ratio>  (33) 
0.0

>  <TOX21_GR_BLA_Antagonist_ch1>  (33) 
0.0

>  <TOX21_GR_BLA_Antagonist_ch2>  (33) 
0.0

>  <TOX21_GR_BLA_Antagonist_ratio>  (33) 
0.0

>  <TOX21_GR_BLA_Antagonist_viability>  (33) 
0.0

>  <TOX21_H2AX_HTRF_CHO_Agonist_ch1>  (33) 
0.0

>  <TOX21_H2AX_HTRF_CHO_Agonist_ch2>  (33) 
0.0

>  <TOX21_H2AX_HTRF_CHO_Agonist_ratio>  (33) 
0.0

>  <TOX21_H2AX_HTRF_CHO_viability>  (33) 
1.0

>  <TOX21_HDAC_Inhibition>  (33) 
0.0

>  <TOX21_HDAC_Inhibition_viability>  (33) 
0.0

>  <TOX21_HRE_BLA_Agonist_ch1>  (33) 
1.0

>  <TOX21_HRE_BLA_Agonist_ch2>  (33) 
0.0

>  <TOX21_HRE_BLA_Agonist_ratio>  (33) 
0.0

>  <TOX21_HRE_BLA_Agonist_viability>  (33) 
0.0

>  <TOX21_HSE_BLA_agonist_ch1>  (33) 
1.0

>  <TOX21_HSE_BLA_agonist_ch2>  (33) 
0.0

>  <TOX21_HSE_BLA_agonist_ratio>  (33) 
0.0

>  <TOX21_HSE_BLA_agonist_viability>  (33) 
0.0

>  <TOX21_LUC_Biochem>  (33) 
0.0

>  <TOX21_MMP_fitc>  (33) 
0.0

>  <TOX21_MMP_ratio_down>  (33) 
1.0

>  <TOX21_MMP_ratio_up>  (33) 
0.0

>  <TOX21_MMP_rhodamine>  (33) 
1.0

>  <TOX21_MMP_viability>  (33) 
1.0

>  <TOX21_NFkB_BLA_agonist_ch1>  (33) 
1.0

>  <TOX21_NFkB_BLA_agonist_ch2>  (33) 
0.0

>  <TOX21_NFkB_BLA_agonist_ratio>  (33) 
0.0

>  <TOX21_NFkB_BLA_agonist_viability>  (33) 
0.0

>  <TOX21_PGC_ERR_Agonist>  (33) 
0.0

>  <TOX21_PGC_ERR_Antagonist>  (33) 
1.0

>  <TOX21_PGC_ERR_viability>  (33) 
0.0

>  <TOX21_PPARd_BLA_Agonist_viability>  (33) 
0.0

>  <TOX21_PPARd_BLA_Antagonist_ch1>  (33) 
0.0

>  <TOX21_PPARd_BLA_Antagonist_ch2>  (33) 
0.0

>  <TOX21_PPARd_BLA_agonist_ch1>  (33) 
0.0

>  <TOX21_PPARd_BLA_agonist_ch2>  (33) 
0.0

>  <TOX21_PPARd_BLA_agonist_ratio>  (33) 
0.0

>  <TOX21_PPARd_BLA_antagonist_ratio>  (33) 
0.0

>  <TOX21_PPARd_BLA_antagonist_viability>  (33) 
0.0

>  <TOX21_PPARg_BLA_Agonist_ch1>  (33) 
0.0

>  <TOX21_PPARg_BLA_Agonist_ch2>  (33) 
0.0

>  <TOX21_PPARg_BLA_Agonist_ratio>  (33) 
0.0

>  <TOX21_PPARg_BLA_Antagonist_ch1>  (33) 
0.0

>  <TOX21_PPARg_BLA_Antagonist_ch2>  (33) 
0.0

>  <TOX21_PPARg_BLA_antagonist_ratio>  (33) 
0.0

>  <TOX21_PPARg_BLA_antagonist_viability>  (33) 
0.0

>  <TOX21_PR_BLA_Agonist_ch1>  (33) 
1.0

>  <TOX21_PR_BLA_Agonist_ch2>  (33) 
1.0

>  <TOX21_PR_BLA_Agonist_ratio>  (33) 
1.0

>  <TOX21_PR_BLA_Antagonist_ch1>  (33) 
0.0

>  <TOX21_PR_BLA_Antagonist_ch2>  (33) 
1.0

>  <TOX21_PR_BLA_Antagonist_ratio>  (33) 
1.0

>  <TOX21_PR_BLA_Antagonist_viability>  (33) 
0.0

>  <TOX21_PXR_Agonist>  (33) 
0.0

>  <TOX21_PXR_viability>  (33) 
0.0

>  <TOX21_RAR_LUC_Agonist>  (33) 
0.0

>  <TOX21_RAR_LUC_Agonist_viability>  (33) 
0.0

>  <TOX21_RAR_LUC_Antagonist_viability>  (33) 
0.0

>  <TOX21_RORg_LUC_CHO_Antagonist>  (33) 
1.0

>  <TOX21_RORg_LUC_CHO_Antagonist_viability>  (33) 
0.0

>  <TOX21_RT_HEK293_FLO_00hr_viability>  (33) 
0.0

>  <TOX21_RT_HEK293_FLO_08hr_viability>  (33) 
0.0

>  <TOX21_RT_HEK293_FLO_16hr_viability>  (33) 
0.0

>  <TOX21_RT_HEK293_FLO_24hr_viability>  (33) 
0.0

>  <TOX21_RT_HEK293_FLO_32hr_viability>  (33) 
0.0

>  <TOX21_RT_HEK293_FLO_40hr_viability>  (33) 
0.0

>  <TOX21_RT_HEK293_GLO_00hr_viability>  (33) 
0.0

>  <TOX21_RT_HEK293_GLO_08hr_viability>  (33) 
1.0

>  <TOX21_RT_HEK293_GLO_16hr_viability>  (33) 
1.0

>  <TOX21_RT_HEK293_GLO_24hr_viability>  (33) 
1.0

>  <TOX21_RT_HEK293_GLO_32hr_viability>  (33) 
1.0

>  <TOX21_RT_HEK293_GLO_40hr_viability>  (33) 
1.0

>  <TOX21_RT_HEPG2_FLO_00hr_ctrl_viability>  (33) 
0.0

>  <TOX21_RT_HEPG2_FLO_08hr_viability>  (33) 
0.0

>  <TOX21_RT_HEPG2_FLO_16hr_ctrl_viability>  (33) 
0.0

>  <TOX21_RT_HEPG2_FLO_24hr_viability>  (33) 
0.0

>  <TOX21_RT_HEPG2_FLO_32hr_ctrl_viability>  (33) 
0.0

>  <TOX21_RT_HEPG2_GLO_00hr_ctrl_viability>  (33) 
0.0

>  <TOX21_RT_HEPG2_GLO_08hr_ctrl_viability>  (33) 
1.0

>  <TOX21_RT_HEPG2_GLO_16hr_ctrl_viability>  (33) 
1.0

>  <TOX21_RT_HEPG2_GLO_24hr_ctrl_viability>  (33) 
0.0

>  <TOX21_RT_HEPG2_GLO_32hr_ctrl_viability>  (33) 
0.0

>  <TOX21_RT_HEPG2_GLO_40hr_viability>  (33) 
0.0

>  <TOX21_RXR_BLA_Agonist_ch1>  (33) 
0.0

>  <TOX21_RXR_BLA_Agonist_ch2>  (33) 
0.0

>  <TOX21_RXR_BLA_Agonist_ratio>  (33) 
0.0

>  <TOX21_RXR_BLA_Agonist_viability>  (33) 
0.0

>  <TOX21_SBE_BLA_Agonist_ch1>  (33) 
0.0

>  <TOX21_SBE_BLA_Agonist_ch2>  (33) 
0.0

>  <TOX21_SBE_BLA_Agonist_ratio>  (33) 
0.0

>  <TOX21_SBE_BLA_Agonist_viability>  (33) 
0.0

>  <TOX21_SBE_BLA_Antagonist_ch1>  (33) 
0.0

>  <TOX21_SBE_BLA_Antagonist_ch2>  (33) 
0.0

>  <TOX21_SBE_BLA_Antagonist_ratio>  (33) 
0.0

>  <TOX21_SBE_BLA_Antagonist_viability>  (33) 
0.0

>  <TOX21_SSH_3T3_GLI3_Agonist>  (33) 
0.0

>  <TOX21_SSH_3T3_GLI3_Agonist_viability>  (33) 
0.0

>  <TOX21_SSH_3T3_GLI3_Antagonist>  (33) 
1.0

>  <TOX21_SSH_3T3_GLI3_Antagonist_viability>  (33) 
0.0

>  <TOX21_TRHR_HEK293_Agonist>  (33) 
0.0

>  <TOX21_TRHR_HEK293_Antagonist>  (33) 
0.0

>  <TOX21_TR_LUC_GH3_Agonist>  (33) 
0.0

>  <TOX21_TR_LUC_GH3_Antagonist>  (33) 
1.0

>  <TOX21_TR_LUC_GH3_Antagonist_viability>  (33) 
0.0

>  <TOX21_TSHR_Agonist_ch2>  (33) 
0.0

>  <TOX21_TSHR_Antagonist_ch2>  (33) 
0.0

>  <TOX21_TSHR_Antagonist_ratio>  (33) 
0.0

>  <TOX21_TSHR_HTRF_Agonist_ch1>  (33) 
0.0

>  <TOX21_TSHR_HTRF_Antagonist_ch1>  (33) 
0.0

>  <TOX21_TSHR_wt_HTRF_ch1>  (33) 
0.0

>  <TOX21_TSHR_wt_ch2>  (33) 
0.0

>  <TOX21_TSHR_wt_ratio>  (33) 
0.0

>  <TOX21_VDR_BLA_Agonist_viability>  (33) 
0.0

>  <TOX21_VDR_BLA_Antagonist_ch1>  (33) 
0.0

>  <TOX21_VDR_BLA_Antagonist_ch2>  (33) 
0.0

>  <TOX21_VDR_BLA_agonist_ch1>  (33) 
0.0

>  <TOX21_VDR_BLA_agonist_ch2>  (33) 
0.0

>  <TOX21_VDR_BLA_agonist_ratio>  (33) 
0.0

>  <TOX21_VDR_BLA_antagonist_ratio>  (33) 
0.0

>  <TOX21_VDR_BLA_antagonist_viability>  (33) 
0.0

>  <TOX21_p53_BLA_p1_ch1>  (33) 
1.0

>  <TOX21_p53_BLA_p1_ch2>  (33) 
0.0

>  <TOX21_p53_BLA_p1_ratio>  (33) 
0.0

>  <TOX21_p53_BLA_p1_viability>  (33) 
0.0

>  <TOX21_p53_BLA_p2_ch1>  (33) 
0.0

>  <TOX21_p53_BLA_p2_ch2>  (33) 
0.0

>  <TOX21_p53_BLA_p2_ratio>  (33) 
0.0

>  <TOX21_p53_BLA_p2_viability>  (33) 
0.0

>  <TOX21_p53_BLA_p3_ch1>  (33) 
0.0

>  <TOX21_p53_BLA_p3_ch2>  (33) 
0.0

>  <TOX21_p53_BLA_p3_ratio>  (33) 
0.0

>  <TOX21_p53_BLA_p4_ch1>  (33) 
0.0

>  <TOX21_p53_BLA_p4_ch2>  (33) 
0.0

>  <TOX21_p53_BLA_p4_ratio>  (33) 
0.0

>  <TOX21_p53_BLA_p4_viability>  (33) 
0.0

>  <TOX21_p53_BLA_p5_ch1>  (33) 
0.0

>  <TOX21_p53_BLA_p5_ch2>  (33) 
0.0

>  <TOX21_p53_BLA_p5_ratio>  (33) 
0.0

>  <TOX21_p53_BLA_p5_viability>  (33) 
0.0

>  <UPITT_HCI_U2OS_AR_TIF2_Nucleoli_Agonist>  (33) 
0.0

>  <UPITT_HCI_U2OS_AR_TIF2_Nucleoli_Antagonist>  (33) 
0.0

>  <UPITT_HCI_U2OS_AR_TIF2_Nucleoli_Cytoplasm_Ratio_Agonist>  (33) 
0.0

>  <UPITT_HCI_U2OS_AR_TIF2_Nucleoli_Cytoplasm_Ratio_Antagonist>  (33) 
0.0

>  <NVS_NR_mERa>  (33) 
0.0

$$$$

     RDKit          3D

 26 25  0  0  0  0  0  0  0  0999 V2000
    0.0000    0.0000    0.0000 C   0  0  0  0  0  0  0  0  0  0  0  0
    0.0000    0.0000    0.0000 C   0  0  0  0  0  0  0  0  0  0  0  0
    0.0000    0.0000    0.0000 C   0  0  0  0  0  0  0  0  0  0  0  0
    0.0000    0.0000    0.0000 C   0  0  0  0  0  0  0  0  0  0  0  0
    0.0000    0.0000    0.0000 C   0  0  0  0  0  0  0  0  0  0  0  0
    0.0000    0.0000    0.0000 C   0  0  0  0  0  0  0  0  0  0  0  0
    0.0000    0.0000    0.0000 C   0  0  0  0  0  0  0  0  0  0  0  0
    0.0000    0.0000    0.0000 C   0  0  0  0  0  0  0  0  0  0  0  0
    0.0000    0.0000    0.0000 O   0  0  0  0  0  0  0  0  0  0  0  0
    0.0000    0.0000    0.0000 C   0  0  0  0  0  0  0  0  0  0  0  0
    0.0000    0.0000    0.0000 O   0  0  0  0  0  0  0  0  0  0  0  0
    0.0000    0.0000    0.0000 C   0  0  0  0  0  0  0  0  0  0  0  0
    0.0000    0.0000    0.0000 C   0  0  0  0  0  0  0  0  0  0  0  0
    0.0000    0.0000    0.0000 C   0  0  0  0  0  0  0  0  0  0  0  0
    0.0000    0.0000    0.0000 C   0  0  0  0  0  0  0  0  0  0  0  0
    0.0000    0.0000    0.0000 C   0  0  0  0  0  0  0  0  0  0  0  0
    0.0000    0.0000    0.0000 O   0  0  0  0  0  0  0  0  0  0  0  0
    0.0000    0.0000    0.0000 O   0  0  0  0  0  0  0  0  0  0  0  0
    0.0000    0.0000    0.0000 C   0  0  0  0  0  0  0  0  0  0  0  0
    0.0000    0.0000    0.0000 C   0  0  0  0  0  0  0  0  0  0  0  0
    0.0000    0.0000    0.0000 C   0  0  0  0  0  0  0  0  0  0  0  0
    0.0000    0.0000    0.0000 C   0  0  0  0  0  0  0  0  0  0  0  0
    0.0000    0.0000    0.0000 C   0  0  0  0  0  0  0  0  0  0  0  0
    0.0000    0.0000    0.0000 C   0  0  0  0  0  0  0  0  0  0  0  0
    0.0000    0.0000    0.0000 C   0  0  0  0  0  0  0  0  0  0  0  0
    0.0000    0.0000    0.0000 C   0  0  0  0  0  0  0  0  0  0  0  0
  1  2  1  0
  2  3  1  0
  3  4  1  0
  4  5  1  0
  5  6  1  0
  6  7  1  0
  5  8  1  0
  8  9  1  0
  9 10  1  0
 10 11  2  0
 10 12  1  0
 12 13  1  0
 13 14  1  0
 14 15  1  0
 15 16  1  0
 16 17  2  0
 16 18  1  0
 18 19  1  0
 19 20  1  0
 20 21  1  0
 21 22  1  0
 20 23  1  0
 23 24  1  0
 24 25  1  0
 25 26  1  0
M  END
>  <CASRN>  (34) 
103-23-1

>  <Name>  (34) 
Bis(2-ethylhexyl)hexanedioate

>  <Active>  (34) 
0

>  <Inactive>  (34) 
2

>  <Bioactivity>  (34) 
Inactive

>  <Min LEL>  (34) 
nan

>  <Max HDT>  (34) 
1000.0

>  <Class>  (34) 
0

>  <Code>  (34) 
C103231

>  <OT_ER_ERaERb_1440>  (34) 
0.0

>  <OT_FXR_FXRSRC1_0480>  (34) 
0.0

>  <OT_PPARg_PPARgSRC1_1440>  (34) 
0.0

>  <OT_FXR_FXRSRC1_1440>  (34) 
0.0

>  <OT_NURR1_NURR1RXRa_0480>  (34) 
0.0

>  <OT_NURR1_NURR1RXRa_1440>  (34) 
0.0

>  <OT_PPARg_PPARgSRC1_0480>  (34) 
0.0

>  <OT_AR_ARELUC_AG_1440>  (34) 
0.0

>  <OT_ERa_EREGFP_0120>  (34) 
0.0

>  <BSK_3C_HLADR_down>  (34) 
0.0

>  <BSK_3C_Vis_down>  (34) 
0.0

>  <BSK_3C_uPAR_down>  (34) 
0.0

>  <ATG_CAR_TRANS_up>  (34) 
0.0

>  <ATG_E2F_CIS_dn>  (34) 
0.0

>  <ATG_EGR_CIS_up>  (34) 
0.0

>  <ATG_ERa_TRANS_dn>  (34) 
0.0

>  <ATG_ERa_TRANS_up>  (34) 
0.0

>  <ATG_FXR_TRANS_dn>  (34) 
0.0

>  <ATG_GLI_CIS_dn>  (34) 
0.0

>  <ATG_GRE_CIS_up>  (34) 
0.0

>  <ATG_LXRa_TRANS_dn>  (34) 
0.0

>  <ATG_LXRa_TRANS_up>  (34) 
0.0

>  <ATG_NRF1_CIS_up>  (34) 
0.0

>  <ATG_NURR1_TRANS_up>  (34) 
0.0

>  <ATG_Sox_CIS_dn>  (34) 
0.0

>  <ATG_Sox_CIS_up>  (34) 
0.0

>  <ATG_Sp1_CIS_up>  (34) 
0.0

>  <ATG_TGFb_CIS_up>  (34) 
0.0

>  <TOX21_ARE_BLA_agonist_ratio>  (34) 
0.0

>  <TOX21_RAR_LUC_Antagonist>  (34) 
0.0

>  <ATG_LXRb_TRANS_dn>  (34) 
0.0

>  <ATG_CAR_TRANS_dn>  (34) 
0.0

>  <ATG_BRE_CIS_dn>  (34) 
0.0

>  <ATG_E2F_CIS_up>  (34) 
0.0

>  <TOX21_TSHR_Agonist_ratio>  (34) 
0.0

>  <ACEA_ER_80hr>  (34) 
0.0

>  <TOX21_CAR_Agonist_viabillity>  (34) 
0.0

>  <TOX21_PR_BLA_Agonist_viability>  (34) 
0.0

>  <TOX21_RT_HEPG2_FLO_40hr_ctrl_viability>  (34) 
1.0

>  <TOX21_AhR_LUC_Agonist_viability>  (34) 
0.0

>  <TOX21_ERR_viability>  (34) 
0.0

>  <TOX21_p53_BLA_p3_viability>  (34) 
0.0

>  <NVS_NR_hER>  (34) 
0.0

>  <NVS_NR_cAR>  (34) 
0.0

>  <NVS_NR_hPR>  (34) 
0.0

>  <NVS_NR_rAR>  (34) 
0.0

>  <NVS_NR_hGR>  (34) 
0.0

>  <NVS_NR_hAR>  (34) 
0.0

>  <NVS_NR_bER>  (34) 
0.0

>  <ACEA_AR_agonist_80hr>  (34) 
0.0

>  <ACEA_AR_agonist_AUC_viability>  (34) 
0.0

>  <ACEA_AR_antagonist_80hr>  (34) 
0.0

>  <ACEA_AR_antagonist_AUC_viability>  (34) 
0.0

>  <ACEA_ER_AUC_viability>  (34) 
0.0

>  <APR_HepG2_CellCycleArrest_24h_dn>  (34) 
0.0

>  <APR_HepG2_CellCycleArrest_24h_up>  (34) 
0.0

>  <APR_HepG2_CellCycleArrest_72h_dn>  (34) 
0.0

>  <APR_HepG2_CellCycleArrest_72h_up>  (34) 
0.0

>  <APR_HepG2_CellLoss_24h_dn>  (34) 
0.0

>  <APR_HepG2_CellLoss_24h_up>  (34) 
0.0

>  <APR_HepG2_CellLoss_72h_dn>  (34) 
0.0

>  <APR_HepG2_CellLoss_72h_up>  (34) 
0.0

>  <APR_HepG2_MicrotubuleCSK_24h_dn>  (34) 
0.0

>  <APR_HepG2_MicrotubuleCSK_24h_up>  (34) 
0.0

>  <APR_HepG2_MicrotubuleCSK_72h_dn>  (34) 
0.0

>  <APR_HepG2_MicrotubuleCSK_72h_up>  (34) 
0.0

>  <APR_HepG2_MitoMass_24h_dn>  (34) 
0.0

>  <APR_HepG2_MitoMass_24h_up>  (34) 
0.0

>  <APR_HepG2_MitoMass_72h_dn>  (34) 
0.0

>  <APR_HepG2_MitoMass_72h_up>  (34) 
0.0

>  <APR_HepG2_MitoMembPot_24h_dn>  (34) 
0.0

>  <APR_HepG2_MitoMembPot_24h_up>  (34) 
0.0

>  <APR_HepG2_MitoMembPot_72h_dn>  (34) 
0.0

>  <APR_HepG2_MitoMembPot_72h_up>  (34) 
0.0

>  <APR_HepG2_MitoticArrest_24h_dn>  (34) 
0.0

>  <APR_HepG2_MitoticArrest_24h_up>  (34) 
0.0

>  <APR_HepG2_MitoticArrest_72h_dn>  (34) 
0.0

>  <APR_HepG2_MitoticArrest_72h_up>  (34) 
0.0

>  <APR_HepG2_NuclearSize_24h_dn>  (34) 
0.0

>  <APR_HepG2_NuclearSize_24h_up>  (34) 
0.0

>  <APR_HepG2_NuclearSize_72h_dn>  (34) 
0.0

>  <APR_HepG2_NuclearSize_72h_up>  (34) 
0.0

>  <APR_HepG2_OxidativeStress_24h_dn>  (34) 
0.0

>  <APR_HepG2_OxidativeStress_24h_up>  (34) 
0.0

>  <APR_HepG2_OxidativeStress_72h_dn>  (34) 
0.0

>  <APR_HepG2_OxidativeStress_72h_up>  (34) 
0.0

>  <APR_HepG2_StressKinase_24h_dn>  (34) 
0.0

>  <APR_HepG2_StressKinase_24h_up>  (34) 
0.0

>  <APR_HepG2_StressKinase_72h_dn>  (34) 
0.0

>  <APR_HepG2_StressKinase_72h_up>  (34) 
0.0

>  <APR_HepG2_p53Act_24h_dn>  (34) 
0.0

>  <APR_HepG2_p53Act_24h_up>  (34) 
0.0

>  <APR_HepG2_p53Act_72h_dn>  (34) 
0.0

>  <APR_HepG2_p53Act_72h_up>  (34) 
0.0

>  <ATG_AP_1_CIS_dn>  (34) 
0.0

>  <ATG_AP_1_CIS_up>  (34) 
0.0

>  <ATG_AP_2_CIS_dn>  (34) 
0.0

>  <ATG_AP_2_CIS_up>  (34) 
0.0

>  <ATG_AR_TRANS_dn>  (34) 
0.0

>  <ATG_AR_TRANS_up>  (34) 
0.0

>  <ATG_Ahr_CIS_dn>  (34) 
1.0

>  <ATG_Ahr_CIS_up>  (34) 
0.0

>  <ATG_BRE_CIS_up>  (34) 
0.0

>  <ATG_CMV_CIS_dn>  (34) 
0.0

>  <ATG_CMV_CIS_up>  (34) 
0.0

>  <ATG_CRE_CIS_dn>  (34) 
0.0

>  <ATG_CRE_CIS_up>  (34) 
0.0

>  <ATG_C_EBP_CIS_dn>  (34) 
0.0

>  <ATG_C_EBP_CIS_up>  (34) 
0.0

>  <ATG_DR4_LXR_CIS_dn>  (34) 
0.0

>  <ATG_DR4_LXR_CIS_up>  (34) 
0.0

>  <ATG_DR5_CIS_dn>  (34) 
0.0

>  <ATG_DR5_CIS_up>  (34) 
0.0

>  <ATG_EGR_CIS_dn>  (34) 
0.0

>  <ATG_ERE_CIS_dn>  (34) 
0.0

>  <ATG_ERE_CIS_up>  (34) 
0.0

>  <ATG_ERRa_TRANS_dn>  (34) 
0.0

>  <ATG_ERRa_TRANS_up>  (34) 
0.0

>  <ATG_ERRg_TRANS_dn>  (34) 
0.0

>  <ATG_ERRg_TRANS_up>  (34) 
0.0

>  <ATG_E_Box_CIS_dn>  (34) 
0.0

>  <ATG_E_Box_CIS_up>  (34) 
0.0

>  <ATG_Ets_CIS_dn>  (34) 
0.0

>  <ATG_Ets_CIS_up>  (34) 
0.0

>  <ATG_FXR_TRANS_up>  (34) 
0.0

>  <ATG_FoxA2_CIS_dn>  (34) 
0.0

>  <ATG_FoxA2_CIS_up>  (34) 
0.0

>  <ATG_FoxO_CIS_dn>  (34) 
0.0

>  <ATG_FoxO_CIS_up>  (34) 
0.0

>  <ATG_GAL4_TRANS_dn>  (34) 
0.0

>  <ATG_GAL4_TRANS_up>  (34) 
0.0

>  <ATG_GATA_CIS_dn>  (34) 
0.0

>  <ATG_GATA_CIS_up>  (34) 
0.0

>  <ATG_GLI_CIS_up>  (34) 
0.0

>  <ATG_GRE_CIS_dn>  (34) 
0.0

>  <ATG_GR_TRANS_dn>  (34) 
0.0

>  <ATG_GR_TRANS_up>  (34) 
0.0

>  <ATG_HIF1a_CIS_dn>  (34) 
0.0

>  <ATG_HIF1a_CIS_up>  (34) 
0.0

>  <ATG_HNF4a_TRANS_dn>  (34) 
0.0

>  <ATG_HNF4a_TRANS_up>  (34) 
0.0

>  <ATG_HNF6_CIS_dn>  (34) 
0.0

>  <ATG_HNF6_CIS_up>  (34) 
0.0

>  <ATG_HSE_CIS_dn>  (34) 
0.0

>  <ATG_HSE_CIS_up>  (34) 
0.0

>  <ATG_IR1_CIS_dn>  (34) 
0.0

>  <ATG_IR1_CIS_up>  (34) 
0.0

>  <ATG_ISRE_CIS_dn>  (34) 
0.0

>  <ATG_ISRE_CIS_up>  (34) 
0.0

>  <ATG_LXRb_TRANS_up>  (34) 
0.0

>  <ATG_MRE_CIS_dn>  (34) 
0.0

>  <ATG_MRE_CIS_up>  (34) 
0.0

>  <ATG_M_06_CIS_dn>  (34) 
0.0

>  <ATG_M_06_CIS_up>  (34) 
0.0

>  <ATG_M_06_TRANS_dn>  (34) 
0.0

>  <ATG_M_06_TRANS_up>  (34) 
0.0

>  <ATG_M_19_CIS_dn>  (34) 
0.0

>  <ATG_M_19_CIS_up>  (34) 
0.0

>  <ATG_M_19_TRANS_dn>  (34) 
0.0

>  <ATG_M_19_TRANS_up>  (34) 
0.0

>  <ATG_M_32_CIS_dn>  (34) 
0.0

>  <ATG_M_32_CIS_up>  (34) 
0.0

>  <ATG_M_32_TRANS_dn>  (34) 
0.0

>  <ATG_M_32_TRANS_up>  (34) 
0.0

>  <ATG_M_61_CIS_dn>  (34) 
0.0

>  <ATG_M_61_CIS_up>  (34) 
0.0

>  <ATG_M_61_TRANS_dn>  (34) 
0.0

>  <ATG_M_61_TRANS_up>  (34) 
0.0

>  <ATG_Myb_CIS_dn>  (34) 
0.0

>  <ATG_Myb_CIS_up>  (34) 
0.0

>  <ATG_Myc_CIS_dn>  (34) 
0.0

>  <ATG_Myc_CIS_up>  (34) 
0.0

>  <ATG_NFI_CIS_dn>  (34) 
0.0

>  <ATG_NFI_CIS_up>  (34) 
0.0

>  <ATG_NF_kB_CIS_dn>  (34) 
0.0

>  <ATG_NF_kB_CIS_up>  (34) 
0.0

>  <ATG_NRF1_CIS_dn>  (34) 
0.0

>  <ATG_NRF2_ARE_CIS_dn>  (34) 
0.0

>  <ATG_NRF2_ARE_CIS_up>  (34) 
0.0

>  <ATG_NURR1_TRANS_dn>  (34) 
0.0

>  <ATG_Oct_MLP_CIS_dn>  (34) 
0.0

>  <ATG_Oct_MLP_CIS_up>  (34) 
0.0

>  <ATG_PBREM_CIS_dn>  (34) 
0.0

>  <ATG_PBREM_CIS_up>  (34) 
0.0

>  <ATG_PPARa_TRANS_dn>  (34) 
0.0

>  <ATG_PPARa_TRANS_up>  (34) 
0.0

>  <ATG_PPARd_TRANS_dn>  (34) 
0.0

>  <ATG_PPARd_TRANS_up>  (34) 
0.0

>  <ATG_PPARg_TRANS_dn>  (34) 
0.0

>  <ATG_PPARg_TRANS_up>  (34) 
0.0

>  <ATG_PPRE_CIS_dn>  (34) 
0.0

>  <ATG_PPRE_CIS_up>  (34) 
0.0

>  <ATG_PXRE_CIS_dn>  (34) 
0.0

>  <ATG_PXRE_CIS_up>  (34) 
0.0

>  <ATG_PXR_TRANS_dn>  (34) 
0.0

>  <ATG_PXR_TRANS_up>  (34) 
0.0

>  <ATG_Pax6_CIS_dn>  (34) 
0.0

>  <ATG_Pax6_CIS_up>  (34) 
0.0

>  <ATG_RARa_TRANS_dn>  (34) 
0.0

>  <ATG_RARa_TRANS_up>  (34) 
0.0

>  <ATG_RARb_TRANS_dn>  (34) 
0.0

>  <ATG_RARb_TRANS_up>  (34) 
0.0

>  <ATG_RARg_TRANS_dn>  (34) 
0.0

>  <ATG_RARg_TRANS_up>  (34) 
0.0

>  <ATG_RORE_CIS_dn>  (34) 
0.0

>  <ATG_RORE_CIS_up>  (34) 
0.0

>  <ATG_RORb_TRANS_dn>  (34) 
0.0

>  <ATG_RORb_TRANS_up>  (34) 
0.0

>  <ATG_RORg_TRANS_dn>  (34) 
0.0

>  <ATG_RORg_TRANS_up>  (34) 
0.0

>  <ATG_RXRa_TRANS_dn>  (34) 
0.0

>  <ATG_RXRa_TRANS_up>  (34) 
0.0

>  <ATG_RXRb_TRANS_dn>  (34) 
0.0

>  <ATG_RXRb_TRANS_up>  (34) 
1.0

>  <ATG_SREBP_CIS_dn>  (34) 
0.0

>  <ATG_SREBP_CIS_up>  (34) 
0.0

>  <ATG_STAT3_CIS_dn>  (34) 
0.0

>  <ATG_STAT3_CIS_up>  (34) 
0.0

>  <ATG_Sp1_CIS_dn>  (34) 
0.0

>  <ATG_TAL_CIS_dn>  (34) 
0.0

>  <ATG_TAL_CIS_up>  (34) 
0.0

>  <ATG_TA_CIS_dn>  (34) 
0.0

>  <ATG_TA_CIS_up>  (34) 
0.0

>  <ATG_TCF_b_cat_CIS_dn>  (34) 
0.0

>  <ATG_TCF_b_cat_CIS_up>  (34) 
0.0

>  <ATG_TGFb_CIS_dn>  (34) 
0.0

>  <ATG_THRa1_TRANS_dn>  (34) 
0.0

>  <ATG_THRa1_TRANS_up>  (34) 
0.0

>  <ATG_VDRE_CIS_dn>  (34) 
0.0

>  <ATG_VDRE_CIS_up>  (34) 
0.0

>  <ATG_VDR_TRANS_dn>  (34) 
0.0

>  <ATG_VDR_TRANS_up>  (34) 
0.0

>  <ATG_XTT_Cytotoxicity_up>  (34) 
0.0

>  <ATG_Xbp1_CIS_dn>  (34) 
0.0

>  <ATG_Xbp1_CIS_up>  (34) 
0.0

>  <ATG_p53_CIS_dn>  (34) 
0.0

>  <ATG_p53_CIS_up>  (34) 
0.0

>  <BSK_3C_Eselectin_down>  (34) 
0.0

>  <BSK_3C_Eselectin_up>  (34) 
0.0

>  <BSK_3C_HLADR_up>  (34) 
0.0

>  <BSK_3C_ICAM1_down>  (34) 
0.0

>  <BSK_3C_ICAM1_up>  (34) 
0.0

>  <BSK_3C_IL8_down>  (34) 
0.0

>  <BSK_3C_IL8_up>  (34) 
0.0

>  <BSK_3C_MCP1_down>  (34) 
0.0

>  <BSK_3C_MCP1_up>  (34) 
0.0

>  <BSK_3C_MIG_down>  (34) 
0.0

>  <BSK_3C_MIG_up>  (34) 
0.0

>  <BSK_3C_Proliferation_down>  (34) 
0.0

>  <BSK_3C_Proliferation_up>  (34) 
0.0

>  <BSK_3C_SRB_down>  (34) 
0.0

>  <BSK_3C_SRB_up>  (34) 
0.0

>  <BSK_3C_Thrombomodulin_down>  (34) 
0.0

>  <BSK_3C_Thrombomodulin_up>  (34) 
0.0

>  <BSK_3C_TissueFactor_down>  (34) 
0.0

>  <BSK_3C_TissueFactor_up>  (34) 
0.0

>  <BSK_3C_VCAM1_down>  (34) 
0.0

>  <BSK_3C_VCAM1_up>  (34) 
0.0

>  <BSK_3C_Vis_up>  (34) 
0.0

>  <BSK_3C_uPAR_up>  (34) 
0.0

>  <BSK_4H_Eotaxin3_down>  (34) 
0.0

>  <BSK_4H_Eotaxin3_up>  (34) 
0.0

>  <BSK_4H_MCP1_down>  (34) 
0.0

>  <BSK_4H_MCP1_up>  (34) 
0.0

>  <BSK_4H_Pselectin_down>  (34) 
0.0

>  <BSK_4H_Pselectin_up>  (34) 
0.0

>  <BSK_4H_SRB_down>  (34) 
0.0

>  <BSK_4H_SRB_up>  (34) 
0.0

>  <BSK_4H_VCAM1_down>  (34) 
0.0

>  <BSK_4H_VCAM1_up>  (34) 
0.0

>  <BSK_4H_VEGFRII_down>  (34) 
0.0

>  <BSK_4H_VEGFRII_up>  (34) 
0.0

>  <BSK_4H_uPAR_down>  (34) 
0.0

>  <BSK_4H_uPAR_up>  (34) 
0.0

>  <BSK_BE3C_HLADR_down>  (34) 
0.0

>  <BSK_BE3C_HLADR_up>  (34) 
0.0

>  <BSK_BE3C_IL1a_down>  (34) 
0.0

>  <BSK_BE3C_IL1a_up>  (34) 
0.0

>  <BSK_BE3C_IP10_down>  (34) 
0.0

>  <BSK_BE3C_IP10_up>  (34) 
0.0

>  <BSK_BE3C_MIG_down>  (34) 
0.0

>  <BSK_BE3C_MIG_up>  (34) 
0.0

>  <BSK_BE3C_MMP1_down>  (34) 
0.0

>  <BSK_BE3C_MMP1_up>  (34) 
0.0

>  <BSK_BE3C_PAI1_down>  (34) 
0.0

>  <BSK_BE3C_PAI1_up>  (34) 
0.0

>  <BSK_BE3C_SRB_down>  (34) 
0.0

>  <BSK_BE3C_SRB_up>  (34) 
0.0

>  <BSK_BE3C_TGFb1_down>  (34) 
0.0

>  <BSK_BE3C_TGFb1_up>  (34) 
0.0

>  <BSK_BE3C_tPA_down>  (34) 
0.0

>  <BSK_BE3C_tPA_up>  (34) 
0.0

>  <BSK_BE3C_uPAR_down>  (34) 
0.0

>  <BSK_BE3C_uPAR_up>  (34) 
0.0

>  <BSK_BE3C_uPA_down>  (34) 
0.0

>  <BSK_BE3C_uPA_up>  (34) 
0.0

>  <BSK_CASM3C_HLADR_down>  (34) 
0.0

>  <BSK_CASM3C_HLADR_up>  (34) 
0.0

>  <BSK_CASM3C_IL6_down>  (34) 
0.0

>  <BSK_CASM3C_IL6_up>  (34) 
0.0

>  <BSK_CASM3C_IL8_down>  (34) 
0.0

>  <BSK_CASM3C_IL8_up>  (34) 
0.0

>  <BSK_CASM3C_LDLR_down>  (34) 
0.0

>  <BSK_CASM3C_LDLR_up>  (34) 
0.0

>  <BSK_CASM3C_MCP1_down>  (34) 
0.0

>  <BSK_CASM3C_MCP1_up>  (34) 
0.0

>  <BSK_CASM3C_MCSF_down>  (34) 
0.0

>  <BSK_CASM3C_MCSF_up>  (34) 
0.0

>  <BSK_CASM3C_MIG_down>  (34) 
0.0

>  <BSK_CASM3C_MIG_up>  (34) 
0.0

>  <BSK_CASM3C_Proliferation_down>  (34) 
0.0

>  <BSK_CASM3C_Proliferation_up>  (34) 
0.0

>  <BSK_CASM3C_SAA_down>  (34) 
0.0

>  <BSK_CASM3C_SAA_up>  (34) 
0.0

>  <BSK_CASM3C_SRB_down>  (34) 
0.0

>  <BSK_CASM3C_SRB_up>  (34) 
0.0

>  <BSK_CASM3C_Thrombomodulin_down>  (34) 
0.0

>  <BSK_CASM3C_Thrombomodulin_up>  (34) 
0.0

>  <BSK_CASM3C_TissueFactor_down>  (34) 
0.0

>  <BSK_CASM3C_TissueFactor_up>  (34) 
0.0

>  <BSK_CASM3C_VCAM1_down>  (34) 
0.0

>  <BSK_CASM3C_VCAM1_up>  (34) 
0.0

>  <BSK_CASM3C_uPAR_down>  (34) 
0.0

>  <BSK_CASM3C_uPAR_up>  (34) 
0.0

>  <BSK_KF3CT_ICAM1_down>  (34) 
0.0

>  <BSK_KF3CT_ICAM1_up>  (34) 
0.0

>  <BSK_KF3CT_IL1a_down>  (34) 
0.0

>  <BSK_KF3CT_IL1a_up>  (34) 
0.0

>  <BSK_KF3CT_IP10_down>  (34) 
0.0

>  <BSK_KF3CT_IP10_up>  (34) 
0.0

>  <BSK_KF3CT_MCP1_down>  (34) 
0.0

>  <BSK_KF3CT_MCP1_up>  (34) 
0.0

>  <BSK_KF3CT_MMP9_down>  (34) 
0.0

>  <BSK_KF3CT_MMP9_up>  (34) 
0.0

>  <BSK_KF3CT_SRB_down>  (34) 
0.0

>  <BSK_KF3CT_SRB_up>  (34) 
0.0

>  <BSK_KF3CT_TGFb1_down>  (34) 
0.0

>  <BSK_KF3CT_TGFb1_up>  (34) 
0.0

>  <BSK_KF3CT_TIMP2_down>  (34) 
0.0

>  <BSK_KF3CT_TIMP2_up>  (34) 
0.0

>  <BSK_KF3CT_uPA_down>  (34) 
0.0

>  <BSK_KF3CT_uPA_up>  (34) 
0.0

>  <BSK_LPS_CD40_down>  (34) 
0.0

>  <BSK_LPS_CD40_up>  (34) 
0.0

>  <BSK_LPS_Eselectin_down>  (34) 
0.0

>  <BSK_LPS_Eselectin_up>  (34) 
0.0

>  <BSK_LPS_IL1a_down>  (34) 
0.0

>  <BSK_LPS_IL1a_up>  (34) 
0.0

>  <BSK_LPS_IL8_down>  (34) 
0.0

>  <BSK_LPS_IL8_up>  (34) 
0.0

>  <BSK_LPS_MCP1_down>  (34) 
0.0

>  <BSK_LPS_MCP1_up>  (34) 
0.0

>  <BSK_LPS_MCSF_down>  (34) 
0.0

>  <BSK_LPS_MCSF_up>  (34) 
0.0

>  <BSK_LPS_PGE2_down>  (34) 
0.0

>  <BSK_LPS_PGE2_up>  (34) 
0.0

>  <BSK_LPS_SRB_down>  (34) 
0.0

>  <BSK_LPS_SRB_up>  (34) 
0.0

>  <BSK_LPS_TNFa_down>  (34) 
0.0

>  <BSK_LPS_TNFa_up>  (34) 
1.0

>  <BSK_LPS_TissueFactor_down>  (34) 
0.0

>  <BSK_LPS_TissueFactor_up>  (34) 
0.0

>  <BSK_LPS_VCAM1_down>  (34) 
0.0

>  <BSK_LPS_VCAM1_up>  (34) 
0.0

>  <BSK_SAg_CD38_down>  (34) 
0.0

>  <BSK_SAg_CD38_up>  (34) 
0.0

>  <BSK_SAg_CD40_down>  (34) 
0.0

>  <BSK_SAg_CD40_up>  (34) 
0.0

>  <BSK_SAg_CD69_down>  (34) 
0.0

>  <BSK_SAg_CD69_up>  (34) 
0.0

>  <BSK_SAg_Eselectin_down>  (34) 
0.0

>  <BSK_SAg_Eselectin_up>  (34) 
0.0

>  <BSK_SAg_IL8_down>  (34) 
0.0

>  <BSK_SAg_IL8_up>  (34) 
0.0

>  <BSK_SAg_MCP1_down>  (34) 
0.0

>  <BSK_SAg_MCP1_up>  (34) 
0.0

>  <BSK_SAg_MIG_down>  (34) 
0.0

>  <BSK_SAg_MIG_up>  (34) 
0.0

>  <BSK_SAg_PBMCCytotoxicity_down>  (34) 
0.0

>  <BSK_SAg_PBMCCytotoxicity_up>  (34) 
0.0

>  <BSK_SAg_Proliferation_down>  (34) 
0.0

>  <BSK_SAg_Proliferation_up>  (34) 
0.0

>  <BSK_SAg_SRB_down>  (34) 
0.0

>  <BSK_SAg_SRB_up>  (34) 
0.0

>  <BSK_hDFCGF_CollagenIII_down>  (34) 
0.0

>  <BSK_hDFCGF_CollagenIII_up>  (34) 
0.0

>  <BSK_hDFCGF_EGFR_down>  (34) 
0.0

>  <BSK_hDFCGF_EGFR_up>  (34) 
0.0

>  <BSK_hDFCGF_IL8_down>  (34) 
0.0

>  <BSK_hDFCGF_IL8_up>  (34) 
0.0

>  <BSK_hDFCGF_IP10_down>  (34) 
0.0

>  <BSK_hDFCGF_IP10_up>  (34) 
0.0

>  <BSK_hDFCGF_MCSF_down>  (34) 
0.0

>  <BSK_hDFCGF_MCSF_up>  (34) 
0.0

>  <BSK_hDFCGF_MIG_down>  (34) 
0.0

>  <BSK_hDFCGF_MIG_up>  (34) 
0.0

>  <BSK_hDFCGF_MMP1_down>  (34) 
0.0

>  <BSK_hDFCGF_MMP1_up>  (34) 
0.0

>  <BSK_hDFCGF_PAI1_down>  (34) 
0.0

>  <BSK_hDFCGF_PAI1_up>  (34) 
0.0

>  <BSK_hDFCGF_Proliferation_down>  (34) 
0.0

>  <BSK_hDFCGF_Proliferation_up>  (34) 
0.0

>  <BSK_hDFCGF_SRB_down>  (34) 
0.0

>  <BSK_hDFCGF_SRB_up>  (34) 
0.0

>  <BSK_hDFCGF_TIMP1_down>  (34) 
0.0

>  <BSK_hDFCGF_TIMP1_up>  (34) 
0.0

>  <BSK_hDFCGF_VCAM1_down>  (34) 
0.0

>  <BSK_hDFCGF_VCAM1_up>  (34) 
0.0

>  <NHEERL_ZF_144hpf_TERATOSCORE_up>  (34) 
0.0

>  <NVS_ENZ_hDUSP3>  (34) 
0.0

>  <NVS_ENZ_hDUSP3_Activator>  (34) 
0.0

>  <NVS_ENZ_hSIRT1>  (34) 
0.0

>  <NVS_ENZ_hSIRT1_Activator>  (34) 
0.0

>  <NVS_ENZ_hSIRT3>  (34) 
0.0

>  <NVS_ENZ_hSIRT3_Activator>  (34) 
0.0

>  <NVS_GPCR_hAdrb1>  (34) 
0.0

>  <NVS_GPCR_hNPY2>  (34) 
0.0

>  <NVS_GPCR_hTXA2>  (34) 
1.0

>  <NVS_NR_hFXR_Antagonist>  (34) 
1.0

>  <NVS_NR_hPPARa>  (34) 
0.0

>  <NVS_NR_hPPARg>  (34) 
0.0

>  <NVS_NR_hRARa_Agonist>  (34) 
0.0

>  <OT_AR_ARSRC1_0480>  (34) 
0.0

>  <OT_AR_ARSRC1_0960>  (34) 
0.0

>  <OT_ER_ERaERa_0480>  (34) 
0.0

>  <OT_ER_ERaERa_1440>  (34) 
0.0

>  <OT_ER_ERaERb_0480>  (34) 
0.0

>  <OT_ER_ERbERb_0480>  (34) 
0.0

>  <OT_ER_ERbERb_1440>  (34) 
0.0

>  <OT_ERa_EREGFP_0480>  (34) 
0.0

>  <TOX21_AP1_BLA_Agonist_ch1>  (34) 
0.0

>  <TOX21_AP1_BLA_Agonist_ch2>  (34) 
0.0

>  <TOX21_AP1_BLA_Agonist_ratio>  (34) 
0.0

>  <TOX21_AP1_BLA_Agonist_viability>  (34) 
0.0

>  <TOX21_ARE_BLA_Agonist_ch1>  (34) 
0.0

>  <TOX21_ARE_BLA_Agonist_ch2>  (34) 
0.0

>  <TOX21_ARE_BLA_agonist_viability>  (34) 
0.0

>  <TOX21_AR_BLA_Agonist_ch1>  (34) 
0.0

>  <TOX21_AR_BLA_Agonist_ch2>  (34) 
0.0

>  <TOX21_AR_BLA_Agonist_ratio>  (34) 
0.0

>  <TOX21_AR_BLA_Antagonist_ch1>  (34) 
0.0

>  <TOX21_AR_BLA_Antagonist_ch2>  (34) 
0.0

>  <TOX21_AR_BLA_Antagonist_ratio>  (34) 
0.0

>  <TOX21_AR_BLA_Antagonist_viability>  (34) 
0.0

>  <TOX21_AR_LUC_MDAKB2_Agonist>  (34) 
0.0

>  <TOX21_AR_LUC_MDAKB2_Agonist_3uM_Nilutamide>  (34) 
0.0

>  <TOX21_AR_LUC_MDAKB2_Agonist_3uM_Nilutamide_viability>  (34) 
0.0

>  <TOX21_AR_LUC_MDAKB2_Antagonist_0.5nM_R1881>  (34) 
0.0

>  <TOX21_AR_LUC_MDAKB2_Antagonist_0.5nM_R1881_viability>  (34) 
0.0

>  <TOX21_AR_LUC_MDAKB2_Antagonist_10nM_R1881>  (34) 
0.0

>  <TOX21_AR_LUC_MDAKB2_Antagonist_10nM_R1881_viability>  (34) 
0.0

>  <TOX21_AhR_LUC_Agonist>  (34) 
0.0

>  <TOX21_Aromatase_Inhibition>  (34) 
0.0

>  <TOX21_Aromatase_Inhibition_viability>  (34) 
0.0

>  <TOX21_AutoFluor_HEK293_Cell_blue>  (34) 
0.0

>  <TOX21_AutoFluor_HEK293_Cell_green>  (34) 
0.0

>  <TOX21_AutoFluor_HEK293_Cell_red>  (34) 
0.0

>  <TOX21_AutoFluor_HEK293_Media_blue>  (34) 
0.0

>  <TOX21_AutoFluor_HEK293_Media_green>  (34) 
0.0

>  <TOX21_AutoFluor_HEK293_Media_red>  (34) 
0.0

>  <TOX21_AutoFluor_HEPG2_Cell_blue>  (34) 
0.0

>  <TOX21_AutoFluor_HEPG2_Cell_green>  (34) 
0.0

>  <TOX21_AutoFluor_HEPG2_Cell_red>  (34) 
0.0

>  <TOX21_AutoFluor_HEPG2_Media_blue>  (34) 
0.0

>  <TOX21_AutoFluor_HEPG2_Media_green>  (34) 
0.0

>  <TOX21_AutoFluor_HEPG2_Media_red>  (34) 
0.0

>  <TOX21_CAR_Agonist>  (34) 
0.0

>  <TOX21_CAR_Antagonist>  (34) 
0.0

>  <TOX21_CAR_Antagonist_viability>  (34) 
0.0

>  <TOX21_CASP3_CHO>  (34) 
0.0

>  <TOX21_CASP3_CHO_viability>  (34) 
0.0

>  <TOX21_CASP3_HEPG2>  (34) 
0.0

>  <TOX21_CASP3_HEPG2_viability>  (34) 
0.0

>  <TOX21_DT40>  (34) 
1.0

>  <TOX21_DT40_100>  (34) 
1.0

>  <TOX21_DT40_657>  (34) 
0.0

>  <TOX21_ELG1_LUC_Agonist>  (34) 
0.0

>  <TOX21_ELG1_LUC_Agonist_viability>  (34) 
0.0

>  <TOX21_ERR_Agonist>  (34) 
0.0

>  <TOX21_ERR_Antagonist>  (34) 
0.0

>  <TOX21_ERa_BLA_Agonist_ch1>  (34) 
0.0

>  <TOX21_ERa_BLA_Agonist_ch2>  (34) 
0.0

>  <TOX21_ERa_BLA_Agonist_ratio>  (34) 
0.0

>  <TOX21_ERa_BLA_Antagonist_ch1>  (34) 
0.0

>  <TOX21_ERa_BLA_Antagonist_ch2>  (34) 
0.0

>  <TOX21_ERa_BLA_Antagonist_ratio>  (34) 
1.0

>  <TOX21_ERa_BLA_Antagonist_viability>  (34) 
0.0

>  <TOX21_ERa_LUC_VM7_Agonist>  (34) 
0.0

>  <TOX21_ERa_LUC_VM7_Agonist_10nM_ICI182780>  (34) 
0.0

>  <TOX21_ERa_LUC_VM7_Agonist_10nM_ICI182780_viability>  (34) 
0.0

>  <TOX21_ERa_LUC_VM7_Antagonist_0.1nM_E2>  (34) 
0.0

>  <TOX21_ERa_LUC_VM7_Antagonist_0.1nM_E2_viability>  (34) 
0.0

>  <TOX21_ERa_LUC_VM7_Antagonist_0.5nM_E2>  (34) 
0.0

>  <TOX21_ERa_LUC_VM7_Antagonist_0.5nM_E2_viability>  (34) 
0.0

>  <TOX21_ERb_BLA_Agonist_ch1>  (34) 
0.0

>  <TOX21_ERb_BLA_Agonist_ch2>  (34) 
0.0

>  <TOX21_ERb_BLA_Agonist_ratio>  (34) 
0.0

>  <TOX21_ERb_BLA_Agonist_viability>  (34) 
0.0

>  <TOX21_ERb_BLA_Antagonist_ch1>  (34) 
0.0

>  <TOX21_ERb_BLA_Antagonist_ch2>  (34) 
0.0

>  <TOX21_ERb_BLA_Antagonist_ratio>  (34) 
0.0

>  <TOX21_ERb_BLA_Antagonist_viability>  (34) 
0.0

>  <TOX21_ESRE_BLA_ch1>  (34) 
0.0

>  <TOX21_ESRE_BLA_ch2>  (34) 
0.0

>  <TOX21_ESRE_BLA_ratio>  (34) 
0.0

>  <TOX21_ESRE_BLA_viability>  (34) 
0.0

>  <TOX21_FXR_BLA_Antagonist_ch1>  (34) 
0.0

>  <TOX21_FXR_BLA_Antagonist_ch2>  (34) 
0.0

>  <TOX21_FXR_BLA_agonist_ch1>  (34) 
0.0

>  <TOX21_FXR_BLA_agonist_ch2>  (34) 
0.0

>  <TOX21_FXR_BLA_agonist_ratio>  (34) 
0.0

>  <TOX21_FXR_BLA_agonist_viability>  (34) 
0.0

>  <TOX21_FXR_BLA_antagonist_ratio>  (34) 
0.0

>  <TOX21_FXR_BLA_antagonist_viability>  (34) 
0.0

>  <TOX21_GR_BLA_Agonist_ch1>  (34) 
0.0

>  <TOX21_GR_BLA_Agonist_ch2>  (34) 
0.0

>  <TOX21_GR_BLA_Agonist_ratio>  (34) 
0.0

>  <TOX21_GR_BLA_Antagonist_ch1>  (34) 
0.0

>  <TOX21_GR_BLA_Antagonist_ch2>  (34) 
0.0

>  <TOX21_GR_BLA_Antagonist_ratio>  (34) 
0.0

>  <TOX21_GR_BLA_Antagonist_viability>  (34) 
0.0

>  <TOX21_H2AX_HTRF_CHO_Agonist_ch1>  (34) 
0.0

>  <TOX21_H2AX_HTRF_CHO_Agonist_ch2>  (34) 
0.0

>  <TOX21_H2AX_HTRF_CHO_Agonist_ratio>  (34) 
0.0

>  <TOX21_H2AX_HTRF_CHO_viability>  (34) 
0.0

>  <TOX21_HDAC_Inhibition>  (34) 
0.0

>  <TOX21_HDAC_Inhibition_viability>  (34) 
0.0

>  <TOX21_HRE_BLA_Agonist_ch1>  (34) 
0.0

>  <TOX21_HRE_BLA_Agonist_ch2>  (34) 
0.0

>  <TOX21_HRE_BLA_Agonist_ratio>  (34) 
0.0

>  <TOX21_HRE_BLA_Agonist_viability>  (34) 
0.0

>  <TOX21_HSE_BLA_agonist_ch1>  (34) 
0.0

>  <TOX21_HSE_BLA_agonist_ch2>  (34) 
0.0

>  <TOX21_HSE_BLA_agonist_ratio>  (34) 
0.0

>  <TOX21_HSE_BLA_agonist_viability>  (34) 
0.0

>  <TOX21_LUC_Biochem>  (34) 
0.0

>  <TOX21_MMP_fitc>  (34) 
0.0

>  <TOX21_MMP_ratio_down>  (34) 
0.0

>  <TOX21_MMP_ratio_up>  (34) 
0.0

>  <TOX21_MMP_rhodamine>  (34) 
0.0

>  <TOX21_MMP_viability>  (34) 
0.0

>  <TOX21_NFkB_BLA_agonist_ch1>  (34) 
0.0

>  <TOX21_NFkB_BLA_agonist_ch2>  (34) 
0.0

>  <TOX21_NFkB_BLA_agonist_ratio>  (34) 
0.0

>  <TOX21_NFkB_BLA_agonist_viability>  (34) 
0.0

>  <TOX21_PGC_ERR_Agonist>  (34) 
0.0

>  <TOX21_PGC_ERR_Antagonist>  (34) 
0.0

>  <TOX21_PGC_ERR_viability>  (34) 
0.0

>  <TOX21_PPARd_BLA_Agonist_viability>  (34) 
0.0

>  <TOX21_PPARd_BLA_Antagonist_ch1>  (34) 
0.0

>  <TOX21_PPARd_BLA_Antagonist_ch2>  (34) 
0.0

>  <TOX21_PPARd_BLA_agonist_ch1>  (34) 
0.0

>  <TOX21_PPARd_BLA_agonist_ch2>  (34) 
0.0

>  <TOX21_PPARd_BLA_agonist_ratio>  (34) 
0.0

>  <TOX21_PPARd_BLA_antagonist_ratio>  (34) 
0.0

>  <TOX21_PPARd_BLA_antagonist_viability>  (34) 
0.0

>  <TOX21_PPARg_BLA_Agonist_ch1>  (34) 
0.0

>  <TOX21_PPARg_BLA_Agonist_ch2>  (34) 
0.0

>  <TOX21_PPARg_BLA_Agonist_ratio>  (34) 
0.0

>  <TOX21_PPARg_BLA_Antagonist_ch1>  (34) 
0.0

>  <TOX21_PPARg_BLA_Antagonist_ch2>  (34) 
0.0

>  <TOX21_PPARg_BLA_antagonist_ratio>  (34) 
0.0

>  <TOX21_PPARg_BLA_antagonist_viability>  (34) 
0.0

>  <TOX21_PR_BLA_Agonist_ch1>  (34) 
0.0

>  <TOX21_PR_BLA_Agonist_ch2>  (34) 
0.0

>  <TOX21_PR_BLA_Agonist_ratio>  (34) 
0.0

>  <TOX21_PR_BLA_Antagonist_ch1>  (34) 
0.0

>  <TOX21_PR_BLA_Antagonist_ch2>  (34) 
0.0

>  <TOX21_PR_BLA_Antagonist_ratio>  (34) 
0.0

>  <TOX21_PR_BLA_Antagonist_viability>  (34) 
0.0

>  <TOX21_PXR_Agonist>  (34) 
0.0

>  <TOX21_PXR_viability>  (34) 
0.0

>  <TOX21_RAR_LUC_Agonist>  (34) 
0.0

>  <TOX21_RAR_LUC_Agonist_viability>  (34) 
0.0

>  <TOX21_RAR_LUC_Antagonist_viability>  (34) 
0.0

>  <TOX21_RORg_LUC_CHO_Antagonist>  (34) 
0.0

>  <TOX21_RORg_LUC_CHO_Antagonist_viability>  (34) 
0.0

>  <TOX21_RT_HEK293_FLO_00hr_viability>  (34) 
0.0

>  <TOX21_RT_HEK293_FLO_08hr_viability>  (34) 
0.0

>  <TOX21_RT_HEK293_FLO_16hr_viability>  (34) 
0.0

>  <TOX21_RT_HEK293_FLO_24hr_viability>  (34) 
0.0

>  <TOX21_RT_HEK293_FLO_32hr_viability>  (34) 
0.0

>  <TOX21_RT_HEK293_FLO_40hr_viability>  (34) 
0.0

>  <TOX21_RT_HEK293_GLO_00hr_viability>  (34) 
0.0

>  <TOX21_RT_HEK293_GLO_08hr_viability>  (34) 
0.0

>  <TOX21_RT_HEK293_GLO_16hr_viability>  (34) 
0.0

>  <TOX21_RT_HEK293_GLO_24hr_viability>  (34) 
0.0

>  <TOX21_RT_HEK293_GLO_32hr_viability>  (34) 
0.0

>  <TOX21_RT_HEK293_GLO_40hr_viability>  (34) 
0.0

>  <TOX21_RT_HEPG2_FLO_00hr_ctrl_viability>  (34) 
0.0

>  <TOX21_RT_HEPG2_FLO_08hr_viability>  (34) 
0.0

>  <TOX21_RT_HEPG2_FLO_16hr_ctrl_viability>  (34) 
0.0

>  <TOX21_RT_HEPG2_FLO_24hr_viability>  (34) 
1.0

>  <TOX21_RT_HEPG2_FLO_32hr_ctrl_viability>  (34) 
1.0

>  <TOX21_RT_HEPG2_GLO_00hr_ctrl_viability>  (34) 
0.0

>  <TOX21_RT_HEPG2_GLO_08hr_ctrl_viability>  (34) 
0.0

>  <TOX21_RT_HEPG2_GLO_16hr_ctrl_viability>  (34) 
0.0

>  <TOX21_RT_HEPG2_GLO_24hr_ctrl_viability>  (34) 
0.0

>  <TOX21_RT_HEPG2_GLO_32hr_ctrl_viability>  (34) 
0.0

>  <TOX21_RT_HEPG2_GLO_40hr_viability>  (34) 
0.0

>  <TOX21_RXR_BLA_Agonist_ch1>  (34) 
0.0

>  <TOX21_RXR_BLA_Agonist_ch2>  (34) 
0.0

>  <TOX21_RXR_BLA_Agonist_ratio>  (34) 
0.0

>  <TOX21_RXR_BLA_Agonist_viability>  (34) 
0.0

>  <TOX21_SBE_BLA_Agonist_ch1>  (34) 
0.0

>  <TOX21_SBE_BLA_Agonist_ch2>  (34) 
0.0

>  <TOX21_SBE_BLA_Agonist_ratio>  (34) 
0.0

>  <TOX21_SBE_BLA_Agonist_viability>  (34) 
0.0

>  <TOX21_SBE_BLA_Antagonist_ch1>  (34) 
0.0

>  <TOX21_SBE_BLA_Antagonist_ch2>  (34) 
0.0

>  <TOX21_SBE_BLA_Antagonist_ratio>  (34) 
0.0

>  <TOX21_SBE_BLA_Antagonist_viability>  (34) 
0.0

>  <TOX21_SSH_3T3_GLI3_Agonist>  (34) 
0.0

>  <TOX21_SSH_3T3_GLI3_Agonist_viability>  (34) 
0.0

>  <TOX21_SSH_3T3_GLI3_Antagonist>  (34) 
0.0

>  <TOX21_SSH_3T3_GLI3_Antagonist_viability>  (34) 
0.0

>  <TOX21_TRHR_HEK293_Agonist>  (34) 
0.0

>  <TOX21_TRHR_HEK293_Antagonist>  (34) 
0.0

>  <TOX21_TR_LUC_GH3_Agonist>  (34) 
0.0

>  <TOX21_TR_LUC_GH3_Antagonist>  (34) 
0.0

>  <TOX21_TR_LUC_GH3_Antagonist_viability>  (34) 
0.0

>  <TOX21_TSHR_Agonist_ch2>  (34) 
0.0

>  <TOX21_TSHR_Antagonist_ch2>  (34) 
0.0

>  <TOX21_TSHR_Antagonist_ratio>  (34) 
0.0

>  <TOX21_TSHR_HTRF_Agonist_ch1>  (34) 
0.0

>  <TOX21_TSHR_HTRF_Antagonist_ch1>  (34) 
0.0

>  <TOX21_TSHR_wt_HTRF_ch1>  (34) 
0.0

>  <TOX21_TSHR_wt_ch2>  (34) 
0.0

>  <TOX21_TSHR_wt_ratio>  (34) 
0.0

>  <TOX21_VDR_BLA_Agonist_viability>  (34) 
0.0

>  <TOX21_VDR_BLA_Antagonist_ch1>  (34) 
0.0

>  <TOX21_VDR_BLA_Antagonist_ch2>  (34) 
0.0

>  <TOX21_VDR_BLA_agonist_ch1>  (34) 
0.0

>  <TOX21_VDR_BLA_agonist_ch2>  (34) 
0.0

>  <TOX21_VDR_BLA_agonist_ratio>  (34) 
0.0

>  <TOX21_VDR_BLA_antagonist_ratio>  (34) 
0.0

>  <TOX21_VDR_BLA_antagonist_viability>  (34) 
0.0

>  <TOX21_p53_BLA_p1_ch1>  (34) 
0.0

>  <TOX21_p53_BLA_p1_ch2>  (34) 
0.0

>  <TOX21_p53_BLA_p1_ratio>  (34) 
0.0

>  <TOX21_p53_BLA_p1_viability>  (34) 
0.0

>  <TOX21_p53_BLA_p2_ch1>  (34) 
0.0

>  <TOX21_p53_BLA_p2_ch2>  (34) 
0.0

>  <TOX21_p53_BLA_p2_ratio>  (34) 
0.0

>  <TOX21_p53_BLA_p2_viability>  (34) 
0.0

>  <TOX21_p53_BLA_p3_ch1>  (34) 
0.0

>  <TOX21_p53_BLA_p3_ch2>  (34) 
0.0

>  <TOX21_p53_BLA_p3_ratio>  (34) 
0.0

>  <TOX21_p53_BLA_p4_ch1>  (34) 
0.0

>  <TOX21_p53_BLA_p4_ch2>  (34) 
0.0

>  <TOX21_p53_BLA_p4_ratio>  (34) 
0.0

>  <TOX21_p53_BLA_p4_viability>  (34) 
0.0

>  <TOX21_p53_BLA_p5_ch1>  (34) 
0.0

>  <TOX21_p53_BLA_p5_ch2>  (34) 
0.0

>  <TOX21_p53_BLA_p5_ratio>  (34) 
0.0

>  <TOX21_p53_BLA_p5_viability>  (34) 
0.0

>  <Tanguay_ZF_120hpf_AXIS_up>  (34) 
0.0

>  <Tanguay_ZF_120hpf_ActivityScore>  (34) 
0.0

>  <Tanguay_ZF_120hpf_BRAI_up>  (34) 
0.0

>  <Tanguay_ZF_120hpf_CFIN_up>  (34) 
0.0

>  <Tanguay_ZF_120hpf_CIRC_up>  (34) 
0.0

>  <Tanguay_ZF_120hpf_EYE_up>  (34) 
0.0

>  <Tanguay_ZF_120hpf_JAW_up>  (34) 
0.0

>  <Tanguay_ZF_120hpf_MORT_up>  (34) 
0.0

>  <Tanguay_ZF_120hpf_NC_up>  (34) 
0.0

>  <Tanguay_ZF_120hpf_OTIC_up>  (34) 
0.0

>  <Tanguay_ZF_120hpf_PE_up>  (34) 
0.0

>  <Tanguay_ZF_120hpf_PFIN_up>  (34) 
0.0

>  <Tanguay_ZF_120hpf_PIG_up>  (34) 
0.0

>  <Tanguay_ZF_120hpf_SNOU_up>  (34) 
0.0

>  <Tanguay_ZF_120hpf_SOMI_up>  (34) 
0.0

>  <Tanguay_ZF_120hpf_SWIM_up>  (34) 
0.0

>  <Tanguay_ZF_120hpf_TRUN_up>  (34) 
0.0

>  <Tanguay_ZF_120hpf_TR_up>  (34) 
0.0

>  <Tanguay_ZF_120hpf_YSE_up>  (34) 
0.0

>  <UPITT_HCI_U2OS_AR_TIF2_Nucleoli_Agonist>  (34) 
0.0

>  <UPITT_HCI_U2OS_AR_TIF2_Nucleoli_Antagonist>  (34) 
0.0

>  <UPITT_HCI_U2OS_AR_TIF2_Nucleoli_Cytoplasm_Ratio_Agonist>  (34) 
0.0

>  <UPITT_HCI_U2OS_AR_TIF2_Nucleoli_Cytoplasm_Ratio_Antagonist>  (34) 
0.0

>  <NVS_NR_mERa>  (34) 
0.0

$$$$

     RDKit          3D

 28 28  0  0  0  0  0  0  0  0999 V2000
    0.0000    0.0000    0.0000 C   0  0  0  0  0  0  0  0  0  0  0  0
    0.0000    0.0000    0.0000 C   0  0  0  0  0  0  0  0  0  0  0  0
    0.0000    0.0000    0.0000 C   0  0  0  0  0  0  0  0  0  0  0  0
    0.0000    0.0000    0.0000 C   0  0  0  0  0  0  0  0  0  0  0  0
    0.0000    0.0000    0.0000 C   0  0  0  0  0  0  0  0  0  0  0  0
    0.0000    0.0000    0.0000 C   0  0  0  0  0  0  0  0  0  0  0  0
    0.0000    0.0000    0.0000 C   0  0  0  0  0  0  0  0  0  0  0  0
    0.0000    0.0000    0.0000 C   0  0  0  0  0  0  0  0  0  0  0  0
    0.0000    0.0000    0.0000 O   0  0  0  0  0  0  0  0  0  0  0  0
    0.0000    0.0000    0.0000 C   0  0  0  0  0  0  0  0  0  0  0  0
    0.0000    0.0000    0.0000 O   0  0  0  0  0  0  0  0  0  0  0  0
    0.0000    0.0000    0.0000 C   0  0  0  0  0  0  0  0  0  0  0  0
    0.0000    0.0000    0.0000 C   0  0  0  0  0  0  0  0  0  0  0  0
    0.0000    0.0000    0.0000 C   0  0  0  0  0  0  0  0  0  0  0  0
    0.0000    0.0000    0.0000 C   0  0  0  0  0  0  0  0  0  0  0  0
    0.0000    0.0000    0.0000 C   0  0  0  0  0  0  0  0  0  0  0  0
    0.0000    0.0000    0.0000 C   0  0  0  0  0  0  0  0  0  0  0  0
    0.0000    0.0000    0.0000 C   0  0  0  0  0  0  0  0  0  0  0  0
    0.0000    0.0000    0.0000 O   0  0  0  0  0  0  0  0  0  0  0  0
    0.0000    0.0000    0.0000 O   0  0  0  0  0  0  0  0  0  0  0  0
    0.0000    0.0000    0.0000 C   0  0  0  0  0  0  0  0  0  0  0  0
    0.0000    0.0000    0.0000 C   0  0  0  0  0  0  0  0  0  0  0  0
    0.0000    0.0000    0.0000 C   0  0  0  0  0  0  0  0  0  0  0  0
    0.0000    0.0000    0.0000 C   0  0  0  0  0  0  0  0  0  0  0  0
    0.0000    0.0000    0.0000 C   0  0  0  0  0  0  0  0  0  0  0  0
    0.0000    0.0000    0.0000 C   0  0  0  0  0  0  0  0  0  0  0  0
    0.0000    0.0000    0.0000 C   0  0  0  0  0  0  0  0  0  0  0  0
    0.0000    0.0000    0.0000 C   0  0  0  0  0  0  0  0  0  0  0  0
  1  2  1  0
  2  3  1  0
  3  4  1  0
  4  5  1  0
  5  6  1  0
  6  7  1  0
  5  8  1  0
  8  9  1  0
  9 10  1  0
 10 11  2  0
 10 12  1  0
 12 13  2  0
 13 14  1  0
 14 15  2  0
 15 16  1  0
 16 17  2  0
 17 18  1  0
 18 19  2  0
 18 20  1  0
 20 21  1  0
 21 22  1  0
 22 23  1  0
 23 24  1  0
 22 25  1  0
 25 26  1  0
 26 27  1  0
 27 28  1  0
 17 12  1  0
M  END
>  <CASRN>  (35) 
117-81-7

>  <Name>  (35) 
Bis(2-ethylhexyl)phthalate

>  <Active>  (35) 
0

>  <Inactive>  (35) 
2

>  <Bioactivity>  (35) 
Inactive

>  <Min LEL>  (35) 
nan

>  <Max HDT>  (35) 
1000.0

>  <Class>  (35) 
0

>  <Code>  (35) 
C117817

>  <NVS_NR_hER>  (35) 
0.0

>  <NVS_NR_hAR>  (35) 
0.0

>  <NVS_NR_hGR>  (35) 
1.0

>  <NVS_NR_hPR>  (35) 
0.0

>  <NVS_NR_rAR>  (35) 
0.0

>  <OT_ER_ERaERb_1440>  (35) 
1.0

>  <OT_FXR_FXRSRC1_0480>  (35) 
0.0

>  <OT_PPARg_PPARgSRC1_1440>  (35) 
0.0

>  <OT_FXR_FXRSRC1_1440>  (35) 
0.0

>  <OT_NURR1_NURR1RXRa_0480>  (35) 
0.0

>  <OT_NURR1_NURR1RXRa_1440>  (35) 
0.0

>  <OT_PPARg_PPARgSRC1_0480>  (35) 
0.0

>  <OT_AR_ARELUC_AG_1440>  (35) 
0.0

>  <OT_ERa_EREGFP_0120>  (35) 
0.0

>  <BSK_3C_HLADR_down>  (35) 
1.0

>  <BSK_3C_Vis_down>  (35) 
1.0

>  <BSK_3C_uPAR_down>  (35) 
0.0

>  <ATG_CAR_TRANS_up>  (35) 
0.0

>  <ATG_E2F_CIS_dn>  (35) 
0.0

>  <ATG_EGR_CIS_up>  (35) 
0.0

>  <ATG_ERa_TRANS_dn>  (35) 
0.0

>  <ATG_ERa_TRANS_up>  (35) 
0.0

>  <ATG_FXR_TRANS_dn>  (35) 
0.0

>  <ATG_GLI_CIS_dn>  (35) 
0.0

>  <ATG_GRE_CIS_up>  (35) 
0.0

>  <ATG_LXRa_TRANS_dn>  (35) 
0.0

>  <ATG_LXRa_TRANS_up>  (35) 
0.0

>  <ATG_NRF1_CIS_up>  (35) 
0.0

>  <ATG_NURR1_TRANS_up>  (35) 
0.0

>  <ATG_Sox_CIS_dn>  (35) 
0.0

>  <ATG_Sox_CIS_up>  (35) 
0.0

>  <ATG_Sp1_CIS_up>  (35) 
0.0

>  <ATG_TGFb_CIS_up>  (35) 
0.0

>  <TOX21_ARE_BLA_agonist_ratio>  (35) 
0.0

>  <TOX21_RAR_LUC_Antagonist>  (35) 
0.0

>  <ATG_LXRb_TRANS_dn>  (35) 
0.0

>  <ATG_CAR_TRANS_dn>  (35) 
0.0

>  <ATG_BRE_CIS_dn>  (35) 
0.0

>  <ATG_E2F_CIS_up>  (35) 
0.0

>  <TOX21_TSHR_Agonist_ratio>  (35) 
0.0

>  <ACEA_ER_80hr>  (35) 
0.0

>  <TOX21_CAR_Agonist_viabillity>  (35) 
0.0

>  <TOX21_PR_BLA_Agonist_viability>  (35) 
0.0

>  <TOX21_RT_HEPG2_FLO_40hr_ctrl_viability>  (35) 
0.0

>  <TOX21_AhR_LUC_Agonist_viability>  (35) 
0.0

>  <TOX21_ERR_viability>  (35) 
0.0

>  <TOX21_p53_BLA_p3_viability>  (35) 
0.0

>  <NVS_NR_cAR>  (35) 
0.0

>  <NVS_NR_bER>  (35) 
0.0

>  <ACEA_AR_agonist_80hr>  (35) 
0.0

>  <ACEA_AR_agonist_AUC_viability>  (35) 
1.0

>  <ACEA_AR_antagonist_80hr>  (35) 
1.0

>  <ACEA_AR_antagonist_AUC_viability>  (35) 
1.0

>  <ACEA_ER_AUC_viability>  (35) 
0.0

>  <APR_HepG2_CellCycleArrest_1h_dn>  (35) 
0.0

>  <APR_HepG2_CellCycleArrest_1h_up>  (35) 
0.0

>  <APR_HepG2_CellCycleArrest_24h_dn>  (35) 
0.0

>  <APR_HepG2_CellCycleArrest_24h_up>  (35) 
0.0

>  <APR_HepG2_CellCycleArrest_72h_dn>  (35) 
0.0

>  <APR_HepG2_CellCycleArrest_72h_up>  (35) 
0.0

>  <APR_HepG2_CellLoss_1h_dn>  (35) 
0.0

>  <APR_HepG2_CellLoss_1h_up>  (35) 
0.0

>  <APR_HepG2_CellLoss_24h_dn>  (35) 
0.0

>  <APR_HepG2_CellLoss_24h_up>  (35) 
0.0

>  <APR_HepG2_CellLoss_72h_dn>  (35) 
0.0

>  <APR_HepG2_CellLoss_72h_up>  (35) 
0.0

>  <APR_HepG2_MicrotubuleCSK_1h_dn>  (35) 
0.0

>  <APR_HepG2_MicrotubuleCSK_1h_up>  (35) 
0.0

>  <APR_HepG2_MicrotubuleCSK_24h_dn>  (35) 
0.0

>  <APR_HepG2_MicrotubuleCSK_24h_up>  (35) 
0.0

>  <APR_HepG2_MicrotubuleCSK_72h_dn>  (35) 
0.0

>  <APR_HepG2_MicrotubuleCSK_72h_up>  (35) 
0.0

>  <APR_HepG2_MitoMass_1h_dn>  (35) 
0.0

>  <APR_HepG2_MitoMass_1h_up>  (35) 
0.0

>  <APR_HepG2_MitoMass_24h_dn>  (35) 
0.0

>  <APR_HepG2_MitoMass_24h_up>  (35) 
0.0

>  <APR_HepG2_MitoMass_72h_dn>  (35) 
0.0

>  <APR_HepG2_MitoMass_72h_up>  (35) 
0.0

>  <APR_HepG2_MitoMembPot_1h_dn>  (35) 
0.0

>  <APR_HepG2_MitoMembPot_1h_up>  (35) 
0.0

>  <APR_HepG2_MitoMembPot_24h_dn>  (35) 
0.0

>  <APR_HepG2_MitoMembPot_24h_up>  (35) 
0.0

>  <APR_HepG2_MitoMembPot_72h_dn>  (35) 
0.0

>  <APR_HepG2_MitoMembPot_72h_up>  (35) 
0.0

>  <APR_HepG2_MitoticArrest_1h_dn>  (35) 
0.0

>  <APR_HepG2_MitoticArrest_1h_up>  (35) 
0.0

>  <APR_HepG2_MitoticArrest_24h_dn>  (35) 
0.0

>  <APR_HepG2_MitoticArrest_24h_up>  (35) 
0.0

>  <APR_HepG2_MitoticArrest_72h_dn>  (35) 
0.0

>  <APR_HepG2_MitoticArrest_72h_up>  (35) 
0.0

>  <APR_HepG2_NuclearSize_1h_dn>  (35) 
0.0

>  <APR_HepG2_NuclearSize_1h_up>  (35) 
0.0

>  <APR_HepG2_NuclearSize_24h_dn>  (35) 
0.0

>  <APR_HepG2_NuclearSize_24h_up>  (35) 
0.0

>  <APR_HepG2_NuclearSize_72h_dn>  (35) 
0.0

>  <APR_HepG2_NuclearSize_72h_up>  (35) 
0.0

>  <APR_HepG2_OxidativeStress_1h_dn>  (35) 
0.0

>  <APR_HepG2_OxidativeStress_1h_up>  (35) 
0.0

>  <APR_HepG2_OxidativeStress_24h_dn>  (35) 
0.0

>  <APR_HepG2_OxidativeStress_24h_up>  (35) 
0.0

>  <APR_HepG2_OxidativeStress_72h_dn>  (35) 
0.0

>  <APR_HepG2_OxidativeStress_72h_up>  (35) 
0.0

>  <APR_HepG2_StressKinase_1h_dn>  (35) 
0.0

>  <APR_HepG2_StressKinase_1h_up>  (35) 
0.0

>  <APR_HepG2_StressKinase_24h_dn>  (35) 
0.0

>  <APR_HepG2_StressKinase_24h_up>  (35) 
0.0

>  <APR_HepG2_StressKinase_72h_dn>  (35) 
0.0

>  <APR_HepG2_StressKinase_72h_up>  (35) 
0.0

>  <APR_HepG2_p53Act_1h_dn>  (35) 
0.0

>  <APR_HepG2_p53Act_1h_up>  (35) 
0.0

>  <APR_HepG2_p53Act_24h_dn>  (35) 
0.0

>  <APR_HepG2_p53Act_24h_up>  (35) 
0.0

>  <APR_HepG2_p53Act_72h_dn>  (35) 
0.0

>  <APR_HepG2_p53Act_72h_up>  (35) 
0.0

>  <APR_Hepat_Apoptosis_1hr_dn>  (35) 
0.0

>  <APR_Hepat_Apoptosis_1hr_up>  (35) 
0.0

>  <APR_Hepat_Apoptosis_24hr_dn>  (35) 
0.0

>  <APR_Hepat_Apoptosis_24hr_up>  (35) 
0.0

>  <APR_Hepat_Apoptosis_48hr_dn>  (35) 
0.0

>  <APR_Hepat_Apoptosis_48hr_up>  (35) 
0.0

>  <APR_Hepat_CellLoss_1hr_dn>  (35) 
0.0

>  <APR_Hepat_CellLoss_1hr_up>  (35) 
0.0

>  <APR_Hepat_CellLoss_24hr_dn>  (35) 
0.0

>  <APR_Hepat_CellLoss_24hr_up>  (35) 
0.0

>  <APR_Hepat_CellLoss_48hr_dn>  (35) 
0.0

>  <APR_Hepat_CellLoss_48hr_up>  (35) 
0.0

>  <APR_Hepat_DNADamage_1hr_dn>  (35) 
0.0

>  <APR_Hepat_DNADamage_1hr_up>  (35) 
0.0

>  <APR_Hepat_DNADamage_24hr_dn>  (35) 
0.0

>  <APR_Hepat_DNADamage_24hr_up>  (35) 
0.0

>  <APR_Hepat_DNADamage_48hr_dn>  (35) 
0.0

>  <APR_Hepat_DNADamage_48hr_up>  (35) 
0.0

>  <APR_Hepat_DNATexture_1hr_dn>  (35) 
0.0

>  <APR_Hepat_DNATexture_1hr_up>  (35) 
0.0

>  <APR_Hepat_DNATexture_24hr_dn>  (35) 
0.0

>  <APR_Hepat_DNATexture_24hr_up>  (35) 
0.0

>  <APR_Hepat_DNATexture_48hr_dn>  (35) 
0.0

>  <APR_Hepat_DNATexture_48hr_up>  (35) 
0.0

>  <APR_Hepat_LysosomalMass_1hr_dn>  (35) 
0.0

>  <APR_Hepat_LysosomalMass_1hr_up>  (35) 
0.0

>  <APR_Hepat_LysosomalMass_24hr_dn>  (35) 
0.0

>  <APR_Hepat_LysosomalMass_24hr_up>  (35) 
0.0

>  <APR_Hepat_LysosomalMass_48hr_dn>  (35) 
0.0

>  <APR_Hepat_LysosomalMass_48hr_up>  (35) 
0.0

>  <APR_Hepat_MitoFxnI_1hr_dn>  (35) 
0.0

>  <APR_Hepat_MitoFxnI_1hr_up>  (35) 
0.0

>  <APR_Hepat_MitoFxnI_24hr_dn>  (35) 
0.0

>  <APR_Hepat_MitoFxnI_24hr_up>  (35) 
0.0

>  <APR_Hepat_MitoFxnI_48hr_dn>  (35) 
0.0

>  <APR_Hepat_MitoFxnI_48hr_up>  (35) 
0.0

>  <APR_Hepat_NuclearSize_1hr_dn>  (35) 
0.0

>  <APR_Hepat_NuclearSize_1hr_up>  (35) 
0.0

>  <APR_Hepat_NuclearSize_24hr_dn>  (35) 
0.0

>  <APR_Hepat_NuclearSize_24hr_up>  (35) 
0.0

>  <APR_Hepat_NuclearSize_48hr_dn>  (35) 
0.0

>  <APR_Hepat_NuclearSize_48hr_up>  (35) 
0.0

>  <APR_Hepat_Steatosis_1hr_dn>  (35) 
0.0

>  <APR_Hepat_Steatosis_1hr_up>  (35) 
0.0

>  <APR_Hepat_Steatosis_24hr_dn>  (35) 
0.0

>  <APR_Hepat_Steatosis_24hr_up>  (35) 
0.0

>  <APR_Hepat_Steatosis_48hr_dn>  (35) 
0.0

>  <APR_Hepat_Steatosis_48hr_up>  (35) 
0.0

>  <ATG_AP_1_CIS_dn>  (35) 
0.0

>  <ATG_AP_1_CIS_up>  (35) 
0.0

>  <ATG_AP_2_CIS_dn>  (35) 
0.0

>  <ATG_AP_2_CIS_up>  (35) 
0.0

>  <ATG_AR_TRANS_dn>  (35) 
0.0

>  <ATG_AR_TRANS_up>  (35) 
0.0

>  <ATG_Ahr_CIS_dn>  (35) 
0.0

>  <ATG_Ahr_CIS_up>  (35) 
0.0

>  <ATG_BRE_CIS_up>  (35) 
0.0

>  <ATG_CMV_CIS_dn>  (35) 
0.0

>  <ATG_CMV_CIS_up>  (35) 
0.0

>  <ATG_CRE_CIS_dn>  (35) 
0.0

>  <ATG_CRE_CIS_up>  (35) 
1.0

>  <ATG_C_EBP_CIS_dn>  (35) 
0.0

>  <ATG_C_EBP_CIS_up>  (35) 
1.0

>  <ATG_DR4_LXR_CIS_dn>  (35) 
0.0

>  <ATG_DR4_LXR_CIS_up>  (35) 
0.0

>  <ATG_DR5_CIS_dn>  (35) 
0.0

>  <ATG_DR5_CIS_up>  (35) 
0.0

>  <ATG_EGR_CIS_dn>  (35) 
0.0

>  <ATG_ERE_CIS_dn>  (35) 
0.0

>  <ATG_ERE_CIS_up>  (35) 
0.0

>  <ATG_ERRa_TRANS_dn>  (35) 
0.0

>  <ATG_ERRa_TRANS_up>  (35) 
0.0

>  <ATG_ERRg_TRANS_dn>  (35) 
0.0

>  <ATG_ERRg_TRANS_up>  (35) 
0.0

>  <ATG_E_Box_CIS_dn>  (35) 
0.0

>  <ATG_E_Box_CIS_up>  (35) 
0.0

>  <ATG_Ets_CIS_dn>  (35) 
0.0

>  <ATG_Ets_CIS_up>  (35) 
0.0

>  <ATG_FXR_TRANS_up>  (35) 
0.0

>  <ATG_FoxA2_CIS_dn>  (35) 
0.0

>  <ATG_FoxA2_CIS_up>  (35) 
0.0

>  <ATG_FoxO_CIS_dn>  (35) 
0.0

>  <ATG_FoxO_CIS_up>  (35) 
0.0

>  <ATG_GAL4_TRANS_dn>  (35) 
0.0

>  <ATG_GAL4_TRANS_up>  (35) 
0.0

>  <ATG_GATA_CIS_dn>  (35) 
0.0

>  <ATG_GATA_CIS_up>  (35) 
0.0

>  <ATG_GLI_CIS_up>  (35) 
0.0

>  <ATG_GRE_CIS_dn>  (35) 
0.0

>  <ATG_GR_TRANS_dn>  (35) 
0.0

>  <ATG_GR_TRANS_up>  (35) 
0.0

>  <ATG_HIF1a_CIS_dn>  (35) 
0.0

>  <ATG_HIF1a_CIS_up>  (35) 
0.0

>  <ATG_HNF4a_TRANS_dn>  (35) 
0.0

>  <ATG_HNF4a_TRANS_up>  (35) 
0.0

>  <ATG_HNF6_CIS_dn>  (35) 
0.0

>  <ATG_HNF6_CIS_up>  (35) 
0.0

>  <ATG_HSE_CIS_dn>  (35) 
0.0

>  <ATG_HSE_CIS_up>  (35) 
0.0

>  <ATG_Hpa5_TRANS_dn>  (35) 
0.0

>  <ATG_Hpa5_TRANS_up>  (35) 
0.0

>  <ATG_IR1_CIS_dn>  (35) 
0.0

>  <ATG_IR1_CIS_up>  (35) 
0.0

>  <ATG_ISRE_CIS_dn>  (35) 
0.0

>  <ATG_ISRE_CIS_up>  (35) 
0.0

>  <ATG_LXRb_TRANS_up>  (35) 
0.0

>  <ATG_MRE_CIS_dn>  (35) 
0.0

>  <ATG_MRE_CIS_up>  (35) 
0.0

>  <ATG_M_06_CIS_dn>  (35) 
0.0

>  <ATG_M_06_CIS_up>  (35) 
0.0

>  <ATG_M_06_TRANS_dn>  (35) 
0.0

>  <ATG_M_06_TRANS_up>  (35) 
0.0

>  <ATG_M_19_CIS_dn>  (35) 
0.0

>  <ATG_M_19_CIS_up>  (35) 
0.0

>  <ATG_M_19_TRANS_dn>  (35) 
0.0

>  <ATG_M_19_TRANS_up>  (35) 
0.0

>  <ATG_M_32_CIS_dn>  (35) 
0.0

>  <ATG_M_32_CIS_up>  (35) 
0.0

>  <ATG_M_32_TRANS_dn>  (35) 
0.0

>  <ATG_M_32_TRANS_up>  (35) 
0.0

>  <ATG_M_61_CIS_dn>  (35) 
0.0

>  <ATG_M_61_CIS_up>  (35) 
0.0

>  <ATG_M_61_TRANS_dn>  (35) 
0.0

>  <ATG_M_61_TRANS_up>  (35) 
0.0

>  <ATG_Myb_CIS_dn>  (35) 
0.0

>  <ATG_Myb_CIS_up>  (35) 
0.0

>  <ATG_Myc_CIS_dn>  (35) 
0.0

>  <ATG_Myc_CIS_up>  (35) 
0.0

>  <ATG_NFI_CIS_dn>  (35) 
0.0

>  <ATG_NFI_CIS_up>  (35) 
0.0

>  <ATG_NF_kB_CIS_dn>  (35) 
0.0

>  <ATG_NF_kB_CIS_up>  (35) 
0.0

>  <ATG_NRF1_CIS_dn>  (35) 
0.0

>  <ATG_NRF2_ARE_CIS_dn>  (35) 
0.0

>  <ATG_NRF2_ARE_CIS_up>  (35) 
0.0

>  <ATG_NURR1_TRANS_dn>  (35) 
0.0

>  <ATG_Oct_MLP_CIS_dn>  (35) 
0.0

>  <ATG_Oct_MLP_CIS_up>  (35) 
0.0

>  <ATG_PBREM_CIS_dn>  (35) 
0.0

>  <ATG_PBREM_CIS_up>  (35) 
0.0

>  <ATG_PPARa_TRANS_dn>  (35) 
0.0

>  <ATG_PPARa_TRANS_up>  (35) 
0.0

>  <ATG_PPARd_TRANS_dn>  (35) 
0.0

>  <ATG_PPARd_TRANS_up>  (35) 
0.0

>  <ATG_PPARg_TRANS_dn>  (35) 
0.0

>  <ATG_PPARg_TRANS_up>  (35) 
1.0

>  <ATG_PPRE_CIS_dn>  (35) 
0.0

>  <ATG_PPRE_CIS_up>  (35) 
1.0

>  <ATG_PXRE_CIS_dn>  (35) 
0.0

>  <ATG_PXRE_CIS_up>  (35) 
1.0

>  <ATG_PXR_TRANS_dn>  (35) 
0.0

>  <ATG_PXR_TRANS_up>  (35) 
1.0

>  <ATG_Pax6_CIS_dn>  (35) 
0.0

>  <ATG_Pax6_CIS_up>  (35) 
0.0

>  <ATG_RARa_TRANS_dn>  (35) 
0.0

>  <ATG_RARa_TRANS_up>  (35) 
0.0

>  <ATG_RARb_TRANS_dn>  (35) 
0.0

>  <ATG_RARb_TRANS_up>  (35) 
0.0

>  <ATG_RARg_TRANS_dn>  (35) 
0.0

>  <ATG_RARg_TRANS_up>  (35) 
0.0

>  <ATG_RORE_CIS_dn>  (35) 
0.0

>  <ATG_RORE_CIS_up>  (35) 
0.0

>  <ATG_RORb_TRANS_dn>  (35) 
0.0

>  <ATG_RORb_TRANS_up>  (35) 
0.0

>  <ATG_RORg_TRANS_dn>  (35) 
0.0

>  <ATG_RORg_TRANS_up>  (35) 
0.0

>  <ATG_RXRa_TRANS_dn>  (35) 
0.0

>  <ATG_RXRa_TRANS_up>  (35) 
0.0

>  <ATG_RXRb_TRANS_dn>  (35) 
0.0

>  <ATG_RXRb_TRANS_up>  (35) 
0.0

>  <ATG_SREBP_CIS_dn>  (35) 
0.0

>  <ATG_SREBP_CIS_up>  (35) 
0.0

>  <ATG_STAT3_CIS_dn>  (35) 
0.0

>  <ATG_STAT3_CIS_up>  (35) 
0.0

>  <ATG_Sp1_CIS_dn>  (35) 
0.0

>  <ATG_TAL_CIS_dn>  (35) 
0.0

>  <ATG_TAL_CIS_up>  (35) 
0.0

>  <ATG_TA_CIS_dn>  (35) 
0.0

>  <ATG_TA_CIS_up>  (35) 
0.0

>  <ATG_TCF_b_cat_CIS_dn>  (35) 
0.0

>  <ATG_TCF_b_cat_CIS_up>  (35) 
0.0

>  <ATG_TGFb_CIS_dn>  (35) 
0.0

>  <ATG_THRa1_TRANS_dn>  (35) 
0.0

>  <ATG_THRa1_TRANS_up>  (35) 
0.0

>  <ATG_VDRE_CIS_dn>  (35) 
0.0

>  <ATG_VDRE_CIS_up>  (35) 
1.0

>  <ATG_VDR_TRANS_dn>  (35) 
0.0

>  <ATG_VDR_TRANS_up>  (35) 
0.0

>  <ATG_XTT_Cytotoxicity_up>  (35) 
0.0

>  <ATG_Xbp1_CIS_dn>  (35) 
0.0

>  <ATG_Xbp1_CIS_up>  (35) 
0.0

>  <ATG_p53_CIS_dn>  (35) 
0.0

>  <ATG_p53_CIS_up>  (35) 
0.0

>  <BSK_3C_Eselectin_down>  (35) 
0.0

>  <BSK_3C_Eselectin_up>  (35) 
0.0

>  <BSK_3C_HLADR_up>  (35) 
0.0

>  <BSK_3C_ICAM1_down>  (35) 
0.0

>  <BSK_3C_ICAM1_up>  (35) 
0.0

>  <BSK_3C_IL8_down>  (35) 
0.0

>  <BSK_3C_IL8_up>  (35) 
0.0

>  <BSK_3C_MCP1_down>  (35) 
0.0

>  <BSK_3C_MCP1_up>  (35) 
0.0

>  <BSK_3C_MIG_down>  (35) 
0.0

>  <BSK_3C_MIG_up>  (35) 
0.0

>  <BSK_3C_Proliferation_down>  (35) 
1.0

>  <BSK_3C_Proliferation_up>  (35) 
0.0

>  <BSK_3C_SRB_down>  (35) 
1.0

>  <BSK_3C_SRB_up>  (35) 
0.0

>  <BSK_3C_Thrombomodulin_down>  (35) 
0.0

>  <BSK_3C_Thrombomodulin_up>  (35) 
0.0

>  <BSK_3C_TissueFactor_down>  (35) 
0.0

>  <BSK_3C_TissueFactor_up>  (35) 
0.0

>  <BSK_3C_VCAM1_down>  (35) 
0.0

>  <BSK_3C_VCAM1_up>  (35) 
0.0

>  <BSK_3C_Vis_up>  (35) 
0.0

>  <BSK_3C_uPAR_up>  (35) 
0.0

>  <BSK_4H_Eotaxin3_down>  (35) 
1.0

>  <BSK_4H_Eotaxin3_up>  (35) 
0.0

>  <BSK_4H_MCP1_down>  (35) 
1.0

>  <BSK_4H_MCP1_up>  (35) 
0.0

>  <BSK_4H_Pselectin_down>  (35) 
1.0

>  <BSK_4H_Pselectin_up>  (35) 
0.0

>  <BSK_4H_SRB_down>  (35) 
1.0

>  <BSK_4H_SRB_up>  (35) 
0.0

>  <BSK_4H_VCAM1_down>  (35) 
0.0

>  <BSK_4H_VCAM1_up>  (35) 
0.0

>  <BSK_4H_VEGFRII_down>  (35) 
0.0

>  <BSK_4H_VEGFRII_up>  (35) 
0.0

>  <BSK_4H_uPAR_down>  (35) 
0.0

>  <BSK_4H_uPAR_up>  (35) 
0.0

>  <BSK_BE3C_HLADR_down>  (35) 
0.0

>  <BSK_BE3C_HLADR_up>  (35) 
0.0

>  <BSK_BE3C_IL1a_down>  (35) 
0.0

>  <BSK_BE3C_IL1a_up>  (35) 
0.0

>  <BSK_BE3C_IP10_down>  (35) 
0.0

>  <BSK_BE3C_IP10_up>  (35) 
0.0

>  <BSK_BE3C_MIG_down>  (35) 
0.0

>  <BSK_BE3C_MIG_up>  (35) 
0.0

>  <BSK_BE3C_MMP1_down>  (35) 
0.0

>  <BSK_BE3C_MMP1_up>  (35) 
0.0

>  <BSK_BE3C_PAI1_down>  (35) 
0.0

>  <BSK_BE3C_PAI1_up>  (35) 
0.0

>  <BSK_BE3C_SRB_down>  (35) 
1.0

>  <BSK_BE3C_SRB_up>  (35) 
0.0

>  <BSK_BE3C_TGFb1_down>  (35) 
0.0

>  <BSK_BE3C_TGFb1_up>  (35) 
0.0

>  <BSK_BE3C_tPA_down>  (35) 
0.0

>  <BSK_BE3C_tPA_up>  (35) 
0.0

>  <BSK_BE3C_uPAR_down>  (35) 
0.0

>  <BSK_BE3C_uPAR_up>  (35) 
0.0

>  <BSK_BE3C_uPA_down>  (35) 
0.0

>  <BSK_BE3C_uPA_up>  (35) 
0.0

>  <BSK_CASM3C_HLADR_down>  (35) 
0.0

>  <BSK_CASM3C_HLADR_up>  (35) 
0.0

>  <BSK_CASM3C_IL6_down>  (35) 
0.0

>  <BSK_CASM3C_IL6_up>  (35) 
1.0

>  <BSK_CASM3C_IL8_down>  (35) 
0.0

>  <BSK_CASM3C_IL8_up>  (35) 
0.0

>  <BSK_CASM3C_LDLR_down>  (35) 
0.0

>  <BSK_CASM3C_LDLR_up>  (35) 
0.0

>  <BSK_CASM3C_MCP1_down>  (35) 
0.0

>  <BSK_CASM3C_MCP1_up>  (35) 
0.0

>  <BSK_CASM3C_MCSF_down>  (35) 
0.0

>  <BSK_CASM3C_MCSF_up>  (35) 
0.0

>  <BSK_CASM3C_MIG_down>  (35) 
0.0

>  <BSK_CASM3C_MIG_up>  (35) 
0.0

>  <BSK_CASM3C_Proliferation_down>  (35) 
0.0

>  <BSK_CASM3C_Proliferation_up>  (35) 
0.0

>  <BSK_CASM3C_SAA_down>  (35) 
0.0

>  <BSK_CASM3C_SAA_up>  (35) 
0.0

>  <BSK_CASM3C_SRB_down>  (35) 
0.0

>  <BSK_CASM3C_SRB_up>  (35) 
0.0

>  <BSK_CASM3C_Thrombomodulin_down>  (35) 
0.0

>  <BSK_CASM3C_Thrombomodulin_up>  (35) 
0.0

>  <BSK_CASM3C_TissueFactor_down>  (35) 
0.0

>  <BSK_CASM3C_TissueFactor_up>  (35) 
0.0

>  <BSK_CASM3C_VCAM1_down>  (35) 
0.0

>  <BSK_CASM3C_VCAM1_up>  (35) 
0.0

>  <BSK_CASM3C_uPAR_down>  (35) 
0.0

>  <BSK_CASM3C_uPAR_up>  (35) 
0.0

>  <BSK_KF3CT_ICAM1_down>  (35) 
0.0

>  <BSK_KF3CT_ICAM1_up>  (35) 
0.0

>  <BSK_KF3CT_IL1a_down>  (35) 
0.0

>  <BSK_KF3CT_IL1a_up>  (35) 
0.0

>  <BSK_KF3CT_IP10_down>  (35) 
1.0

>  <BSK_KF3CT_IP10_up>  (35) 
0.0

>  <BSK_KF3CT_MCP1_down>  (35) 
0.0

>  <BSK_KF3CT_MCP1_up>  (35) 
0.0

>  <BSK_KF3CT_MMP9_down>  (35) 
0.0

>  <BSK_KF3CT_MMP9_up>  (35) 
0.0

>  <BSK_KF3CT_SRB_down>  (35) 
0.0

>  <BSK_KF3CT_SRB_up>  (35) 
0.0

>  <BSK_KF3CT_TGFb1_down>  (35) 
0.0

>  <BSK_KF3CT_TGFb1_up>  (35) 
0.0

>  <BSK_KF3CT_TIMP2_down>  (35) 
0.0

>  <BSK_KF3CT_TIMP2_up>  (35) 
0.0

>  <BSK_KF3CT_uPA_down>  (35) 
0.0

>  <BSK_KF3CT_uPA_up>  (35) 
0.0

>  <BSK_LPS_CD40_down>  (35) 
1.0

>  <BSK_LPS_CD40_up>  (35) 
0.0

>  <BSK_LPS_Eselectin_down>  (35) 
0.0

>  <BSK_LPS_Eselectin_up>  (35) 
0.0

>  <BSK_LPS_IL1a_down>  (35) 
0.0

>  <BSK_LPS_IL1a_up>  (35) 
0.0

>  <BSK_LPS_IL8_down>  (35) 
1.0

>  <BSK_LPS_IL8_up>  (35) 
0.0

>  <BSK_LPS_MCP1_down>  (35) 
0.0

>  <BSK_LPS_MCP1_up>  (35) 
0.0

>  <BSK_LPS_MCSF_down>  (35) 
1.0

>  <BSK_LPS_MCSF_up>  (35) 
0.0

>  <BSK_LPS_PGE2_down>  (35) 
0.0

>  <BSK_LPS_PGE2_up>  (35) 
0.0

>  <BSK_LPS_SRB_down>  (35) 
1.0

>  <BSK_LPS_SRB_up>  (35) 
0.0

>  <BSK_LPS_TNFa_down>  (35) 
1.0

>  <BSK_LPS_TNFa_up>  (35) 
0.0

>  <BSK_LPS_TissueFactor_down>  (35) 
0.0

>  <BSK_LPS_TissueFactor_up>  (35) 
0.0

>  <BSK_LPS_VCAM1_down>  (35) 
1.0

>  <BSK_LPS_VCAM1_up>  (35) 
0.0

>  <BSK_SAg_CD38_down>  (35) 
1.0

>  <BSK_SAg_CD38_up>  (35) 
0.0

>  <BSK_SAg_CD40_down>  (35) 
1.0

>  <BSK_SAg_CD40_up>  (35) 
0.0

>  <BSK_SAg_CD69_down>  (35) 
1.0

>  <BSK_SAg_CD69_up>  (35) 
0.0

>  <BSK_SAg_Eselectin_down>  (35) 
0.0

>  <BSK_SAg_Eselectin_up>  (35) 
0.0

>  <BSK_SAg_IL8_down>  (35) 
0.0

>  <BSK_SAg_IL8_up>  (35) 
0.0

>  <BSK_SAg_MCP1_down>  (35) 
0.0

>  <BSK_SAg_MCP1_up>  (35) 
0.0

>  <BSK_SAg_MIG_down>  (35) 
0.0

>  <BSK_SAg_MIG_up>  (35) 
0.0

>  <BSK_SAg_PBMCCytotoxicity_down>  (35) 
0.0

>  <BSK_SAg_PBMCCytotoxicity_up>  (35) 
0.0

>  <BSK_SAg_Proliferation_down>  (35) 
1.0

>  <BSK_SAg_Proliferation_up>  (35) 
0.0

>  <BSK_SAg_SRB_down>  (35) 
1.0

>  <BSK_SAg_SRB_up>  (35) 
0.0

>  <BSK_hDFCGF_CollagenIII_down>  (35) 
0.0

>  <BSK_hDFCGF_CollagenIII_up>  (35) 
0.0

>  <BSK_hDFCGF_EGFR_down>  (35) 
0.0

>  <BSK_hDFCGF_EGFR_up>  (35) 
0.0

>  <BSK_hDFCGF_IL8_down>  (35) 
0.0

>  <BSK_hDFCGF_IL8_up>  (35) 
0.0

>  <BSK_hDFCGF_IP10_down>  (35) 
1.0

>  <BSK_hDFCGF_IP10_up>  (35) 
0.0

>  <BSK_hDFCGF_MCSF_down>  (35) 
0.0

>  <BSK_hDFCGF_MCSF_up>  (35) 
0.0

>  <BSK_hDFCGF_MIG_down>  (35) 
0.0

>  <BSK_hDFCGF_MIG_up>  (35) 
0.0

>  <BSK_hDFCGF_MMP1_down>  (35) 
0.0

>  <BSK_hDFCGF_MMP1_up>  (35) 
0.0

>  <BSK_hDFCGF_PAI1_down>  (35) 
0.0

>  <BSK_hDFCGF_PAI1_up>  (35) 
0.0

>  <BSK_hDFCGF_Proliferation_down>  (35) 
1.0

>  <BSK_hDFCGF_Proliferation_up>  (35) 
0.0

>  <BSK_hDFCGF_SRB_down>  (35) 
0.0

>  <BSK_hDFCGF_SRB_up>  (35) 
0.0

>  <BSK_hDFCGF_TIMP1_down>  (35) 
0.0

>  <BSK_hDFCGF_TIMP1_up>  (35) 
0.0

>  <BSK_hDFCGF_VCAM1_down>  (35) 
0.0

>  <BSK_hDFCGF_VCAM1_up>  (35) 
0.0

>  <CEETOX_H295R_11DCORT_noMTC_dn>  (35) 
0.0

>  <CEETOX_H295R_11DCORT_noMTC_up>  (35) 
0.0

>  <CEETOX_H295R_ANDR_noMTC_dn>  (35) 
0.0

>  <CEETOX_H295R_ANDR_noMTC_up>  (35) 
0.0

>  <CEETOX_H295R_CORTIC_noMTC_dn>  (35) 
0.0

>  <CEETOX_H295R_CORTIC_noMTC_up>  (35) 
0.0

>  <CEETOX_H295R_CORTISOL_noMTC_dn>  (35) 
0.0

>  <CEETOX_H295R_CORTISOL_noMTC_up>  (35) 
0.0

>  <CEETOX_H295R_DOC_noMTC_dn>  (35) 
0.0

>  <CEETOX_H295R_DOC_noMTC_up>  (35) 
0.0

>  <CEETOX_H295R_ESTRADIOL_noMTC_dn>  (35) 
0.0

>  <CEETOX_H295R_ESTRADIOL_noMTC_up>  (35) 
0.0

>  <CEETOX_H295R_ESTRONE_noMTC_dn>  (35) 
0.0

>  <CEETOX_H295R_ESTRONE_noMTC_up>  (35) 
0.0

>  <CEETOX_H295R_MTT_cell_viability_dn>  (35) 
0.0

>  <CEETOX_H295R_MTT_cell_viability_up>  (35) 
0.0

>  <CEETOX_H295R_OHPREG_noMTC_dn>  (35) 
0.0

>  <CEETOX_H295R_OHPREG_noMTC_up>  (35) 
0.0

>  <CEETOX_H295R_OHPROG_noMTC_dn>  (35) 
0.0

>  <CEETOX_H295R_OHPROG_noMTC_up>  (35) 
1.0

>  <CEETOX_H295R_PROG_noMTC_dn>  (35) 
0.0

>  <CEETOX_H295R_PROG_noMTC_up>  (35) 
0.0

>  <CEETOX_H295R_TESTO_noMTC_dn>  (35) 
0.0

>  <CEETOX_H295R_TESTO_noMTC_up>  (35) 
0.0

>  <CLD_ABCB11_24hr>  (35) 
0.0

>  <CLD_ABCB11_48hr>  (35) 
0.0

>  <CLD_ABCB11_6hr>  (35) 
0.0

>  <CLD_ABCB1_24hr>  (35) 
0.0

>  <CLD_ABCB1_48hr>  (35) 
0.0

>  <CLD_ABCB1_6hr>  (35) 
0.0

>  <CLD_ABCG2_24hr>  (35) 
0.0

>  <CLD_ABCG2_48hr>  (35) 
0.0

>  <CLD_ABCG2_6hr>  (35) 
0.0

>  <CLD_ACTIN_24hr>  (35) 
0.0

>  <CLD_ACTIN_48hr>  (35) 
0.0

>  <CLD_ACTIN_6hr>  (35) 
0.0

>  <CLD_CYP1A1_24hr>  (35) 
0.0

>  <CLD_CYP1A1_48hr>  (35) 
0.0

>  <CLD_CYP1A1_6hr>  (35) 
0.0

>  <CLD_CYP1A2_24hr>  (35) 
0.0

>  <CLD_CYP1A2_48hr>  (35) 
0.0

>  <CLD_CYP1A2_6hr>  (35) 
0.0

>  <CLD_CYP2B6_24hr>  (35) 
1.0

>  <CLD_CYP2B6_48hr>  (35) 
0.0

>  <CLD_CYP2B6_6hr>  (35) 
1.0

>  <CLD_CYP2C19_24hr>  (35) 
0.0

>  <CLD_CYP2C19_48hr>  (35) 
0.0

>  <CLD_CYP2C19_6hr>  (35) 
0.0

>  <CLD_CYP2C9_24hr>  (35) 
0.0

>  <CLD_CYP2C9_48hr>  (35) 
0.0

>  <CLD_CYP2C9_6hr>  (35) 
0.0

>  <CLD_CYP3A4_24hr>  (35) 
0.0

>  <CLD_CYP3A4_48hr>  (35) 
0.0

>  <CLD_CYP3A4_6hr>  (35) 
0.0

>  <CLD_GAPDH_24hr>  (35) 
0.0

>  <CLD_GAPDH_48hr>  (35) 
0.0

>  <CLD_GAPDH_6hr>  (35) 
0.0

>  <CLD_GSTA2_24hr>  (35) 
0.0

>  <CLD_GSTA2_48hr>  (35) 
0.0

>  <CLD_GSTA2_6hr>  (35) 
0.0

>  <CLD_HMGCS2_24hr>  (35) 
0.0

>  <CLD_HMGCS2_48hr>  (35) 
0.0

>  <CLD_HMGCS2_6hr>  (35) 
0.0

>  <CLD_SLCO1B1_24hr>  (35) 
0.0

>  <CLD_SLCO1B1_48hr>  (35) 
0.0

>  <CLD_SLCO1B1_6hr>  (35) 
0.0

>  <CLD_SULT2A_24hr>  (35) 
0.0

>  <CLD_SULT2A_48hr>  (35) 
0.0

>  <CLD_SULT2A_6hr>  (35) 
0.0

>  <CLD_UGT1A1_24hr>  (35) 
0.0

>  <CLD_UGT1A1_48hr>  (35) 
0.0

>  <CLD_UGT1A1_6hr>  (35) 
0.0

>  <NHEERL_MHC_CellCount_dn>  (35) 
0.0

>  <NHEERL_MHC_CellCount_up>  (35) 
0.0

>  <NHEERL_MHC_MHCvCellCount_dn>  (35) 
0.0

>  <NHEERL_MHC_MHCvCellCount_up>  (35) 
0.0

>  <NHEERL_ZF_144hpf_TERATOSCORE_up>  (35) 
0.0

>  <NVS_ADME_hCYP19A1>  (35) 
1.0

>  <NVS_ADME_hCYP19A1_Activator>  (35) 
0.0

>  <NVS_ADME_hCYP1A1>  (35) 
0.0

>  <NVS_ADME_hCYP1A1_Activator>  (35) 
0.0

>  <NVS_ADME_hCYP2C18>  (35) 
0.0

>  <NVS_ADME_hCYP2C18_Activator>  (35) 
0.0

>  <NVS_ADME_hCYP2C19>  (35) 
0.0

>  <NVS_ADME_hCYP2C19_Activator>  (35) 
0.0

>  <NVS_ADME_hCYP2C9>  (35) 
0.0

>  <NVS_ADME_hCYP2C9_Activator>  (35) 
0.0

>  <NVS_ADME_hCYP4F12>  (35) 
0.0

>  <NVS_ADME_hCYP4F12_Activator>  (35) 
0.0

>  <NVS_ENZ_hCK1D>  (35) 
0.0

>  <NVS_ENZ_hCK1D_Activator>  (35) 
0.0

>  <NVS_ENZ_hNEK2>  (35) 
0.0

>  <NVS_ENZ_hNEK2_Activator>  (35) 
1.0

>  <NVS_ENZ_hPKCz>  (35) 
0.0

>  <NVS_ENZ_hPKCz_Activator>  (35) 
0.0

>  <NVS_ENZ_rCNOS>  (35) 
0.0

>  <NVS_ENZ_rCNOS_Activator>  (35) 
0.0

>  <NVS_GPCR_hAdoRA1>  (35) 
0.0

>  <NVS_GPCR_rTRH>  (35) 
0.0

>  <NVS_GPCR_rabPAF>  (35) 
0.0

>  <NVS_LGIC_rGluNMDA_Agonist>  (35) 
0.0

>  <NVS_MP_hPBR>  (35) 
1.0

>  <NVS_MP_rPBR>  (35) 
1.0

>  <NVS_NR_bPR>  (35) 
0.0

>  <NVS_NR_hCAR_Antagonist>  (35) 
0.0

>  <NVS_NR_hFXR_Antagonist>  (35) 
0.0

>  <NVS_NR_hPPARa>  (35) 
0.0

>  <NVS_NR_hPPARg>  (35) 
0.0

>  <NVS_NR_hRAR_Antagonist>  (35) 
0.0

>  <NVS_NR_hTRa_Antagonist>  (35) 
0.0

>  <NVS_TR_rVMAT2>  (35) 
0.0

>  <OT_AR_ARSRC1_0480>  (35) 
0.0

>  <OT_AR_ARSRC1_0960>  (35) 
0.0

>  <OT_ER_ERaERa_0480>  (35) 
0.0

>  <OT_ER_ERaERa_1440>  (35) 
1.0

>  <OT_ER_ERaERb_0480>  (35) 
1.0

>  <OT_ER_ERbERb_0480>  (35) 
0.0

>  <OT_ER_ERbERb_1440>  (35) 
0.0

>  <OT_ERa_EREGFP_0480>  (35) 
0.0

>  <TOX21_AP1_BLA_Agonist_ch1>  (35) 
0.0

>  <TOX21_AP1_BLA_Agonist_ch2>  (35) 
0.0

>  <TOX21_AP1_BLA_Agonist_ratio>  (35) 
0.0

>  <TOX21_AP1_BLA_Agonist_viability>  (35) 
0.0

>  <TOX21_ARE_BLA_Agonist_ch1>  (35) 
0.0

>  <TOX21_ARE_BLA_Agonist_ch2>  (35) 
0.0

>  <TOX21_ARE_BLA_agonist_viability>  (35) 
0.0

>  <TOX21_AR_BLA_Agonist_ch1>  (35) 
0.0

>  <TOX21_AR_BLA_Agonist_ch2>  (35) 
0.0

>  <TOX21_AR_BLA_Agonist_ratio>  (35) 
0.0

>  <TOX21_AR_BLA_Antagonist_ch1>  (35) 
0.0

>  <TOX21_AR_BLA_Antagonist_ch2>  (35) 
0.0

>  <TOX21_AR_BLA_Antagonist_ratio>  (35) 
0.0

>  <TOX21_AR_BLA_Antagonist_viability>  (35) 
0.0

>  <TOX21_AR_LUC_MDAKB2_Agonist>  (35) 
0.0

>  <TOX21_AR_LUC_MDAKB2_Agonist_3uM_Nilutamide>  (35) 
0.0

>  <TOX21_AR_LUC_MDAKB2_Agonist_3uM_Nilutamide_viability>  (35) 
0.0

>  <TOX21_AR_LUC_MDAKB2_Antagonist_0.5nM_R1881>  (35) 
0.0

>  <TOX21_AR_LUC_MDAKB2_Antagonist_0.5nM_R1881_viability>  (35) 
0.0

>  <TOX21_AR_LUC_MDAKB2_Antagonist_10nM_R1881>  (35) 
0.0

>  <TOX21_AR_LUC_MDAKB2_Antagonist_10nM_R1881_viability>  (35) 
0.0

>  <TOX21_AhR_LUC_Agonist>  (35) 
0.0

>  <TOX21_Aromatase_Inhibition>  (35) 
0.0

>  <TOX21_Aromatase_Inhibition_viability>  (35) 
0.0

>  <TOX21_AutoFluor_HEK293_Cell_blue>  (35) 
0.0

>  <TOX21_AutoFluor_HEK293_Cell_green>  (35) 
0.0

>  <TOX21_AutoFluor_HEK293_Cell_red>  (35) 
0.0

>  <TOX21_AutoFluor_HEK293_Media_blue>  (35) 
0.0

>  <TOX21_AutoFluor_HEK293_Media_green>  (35) 
0.0

>  <TOX21_AutoFluor_HEK293_Media_red>  (35) 
0.0

>  <TOX21_AutoFluor_HEPG2_Cell_blue>  (35) 
0.0

>  <TOX21_AutoFluor_HEPG2_Cell_green>  (35) 
0.0

>  <TOX21_AutoFluor_HEPG2_Cell_red>  (35) 
0.0

>  <TOX21_AutoFluor_HEPG2_Media_blue>  (35) 
0.0

>  <TOX21_AutoFluor_HEPG2_Media_green>  (35) 
0.0

>  <TOX21_AutoFluor_HEPG2_Media_red>  (35) 
0.0

>  <TOX21_CAR_Agonist>  (35) 
0.0

>  <TOX21_CAR_Antagonist>  (35) 
0.0

>  <TOX21_CAR_Antagonist_viability>  (35) 
0.0

>  <TOX21_CASP3_CHO>  (35) 
0.0

>  <TOX21_CASP3_CHO_viability>  (35) 
0.0

>  <TOX21_CASP3_HEPG2>  (35) 
0.0

>  <TOX21_CASP3_HEPG2_viability>  (35) 
0.0

>  <TOX21_DT40>  (35) 
0.0

>  <TOX21_DT40_100>  (35) 
0.0

>  <TOX21_DT40_657>  (35) 
0.0

>  <TOX21_ELG1_LUC_Agonist>  (35) 
0.0

>  <TOX21_ELG1_LUC_Agonist_viability>  (35) 
0.0

>  <TOX21_ERR_Agonist>  (35) 
0.0

>  <TOX21_ERR_Antagonist>  (35) 
0.0

>  <TOX21_ERa_BLA_Agonist_ch1>  (35) 
0.0

>  <TOX21_ERa_BLA_Agonist_ch2>  (35) 
0.0

>  <TOX21_ERa_BLA_Agonist_ratio>  (35) 
0.0

>  <TOX21_ERa_BLA_Antagonist_ch1>  (35) 
0.0

>  <TOX21_ERa_BLA_Antagonist_ch2>  (35) 
0.0

>  <TOX21_ERa_BLA_Antagonist_ratio>  (35) 
0.0

>  <TOX21_ERa_BLA_Antagonist_viability>  (35) 
0.0

>  <TOX21_ERa_LUC_VM7_Agonist>  (35) 
0.0

>  <TOX21_ERa_LUC_VM7_Agonist_10nM_ICI182780>  (35) 
0.0

>  <TOX21_ERa_LUC_VM7_Agonist_10nM_ICI182780_viability>  (35) 
0.0

>  <TOX21_ERa_LUC_VM7_Antagonist_0.1nM_E2>  (35) 
0.0

>  <TOX21_ERa_LUC_VM7_Antagonist_0.1nM_E2_viability>  (35) 
0.0

>  <TOX21_ERa_LUC_VM7_Antagonist_0.5nM_E2>  (35) 
0.0

>  <TOX21_ERa_LUC_VM7_Antagonist_0.5nM_E2_viability>  (35) 
0.0

>  <TOX21_ERb_BLA_Agonist_ch1>  (35) 
0.0

>  <TOX21_ERb_BLA_Agonist_ch2>  (35) 
0.0

>  <TOX21_ERb_BLA_Agonist_ratio>  (35) 
0.0

>  <TOX21_ERb_BLA_Agonist_viability>  (35) 
0.0

>  <TOX21_ERb_BLA_Antagonist_ch1>  (35) 
0.0

>  <TOX21_ERb_BLA_Antagonist_ch2>  (35) 
0.0

>  <TOX21_ERb_BLA_Antagonist_ratio>  (35) 
0.0

>  <TOX21_ERb_BLA_Antagonist_viability>  (35) 
0.0

>  <TOX21_ESRE_BLA_ch1>  (35) 
0.0

>  <TOX21_ESRE_BLA_ch2>  (35) 
0.0

>  <TOX21_ESRE_BLA_ratio>  (35) 
0.0

>  <TOX21_ESRE_BLA_viability>  (35) 
0.0

>  <TOX21_FXR_BLA_Antagonist_ch1>  (35) 
0.0

>  <TOX21_FXR_BLA_Antagonist_ch2>  (35) 
0.0

>  <TOX21_FXR_BLA_agonist_ch1>  (35) 
0.0

>  <TOX21_FXR_BLA_agonist_ch2>  (35) 
0.0

>  <TOX21_FXR_BLA_agonist_ratio>  (35) 
0.0

>  <TOX21_FXR_BLA_agonist_viability>  (35) 
0.0

>  <TOX21_FXR_BLA_antagonist_ratio>  (35) 
0.0

>  <TOX21_FXR_BLA_antagonist_viability>  (35) 
0.0

>  <TOX21_GR_BLA_Agonist_ch1>  (35) 
0.0

>  <TOX21_GR_BLA_Agonist_ch2>  (35) 
0.0

>  <TOX21_GR_BLA_Agonist_ratio>  (35) 
0.0

>  <TOX21_GR_BLA_Antagonist_ch1>  (35) 
0.0

>  <TOX21_GR_BLA_Antagonist_ch2>  (35) 
0.0

>  <TOX21_GR_BLA_Antagonist_ratio>  (35) 
0.0

>  <TOX21_GR_BLA_Antagonist_viability>  (35) 
0.0

>  <TOX21_H2AX_HTRF_CHO_Agonist_ch1>  (35) 
0.0

>  <TOX21_H2AX_HTRF_CHO_Agonist_ch2>  (35) 
0.0

>  <TOX21_H2AX_HTRF_CHO_Agonist_ratio>  (35) 
0.0

>  <TOX21_H2AX_HTRF_CHO_viability>  (35) 
0.0

>  <TOX21_HDAC_Inhibition>  (35) 
0.0

>  <TOX21_HDAC_Inhibition_viability>  (35) 
0.0

>  <TOX21_HRE_BLA_Agonist_ch1>  (35) 
0.0

>  <TOX21_HRE_BLA_Agonist_ch2>  (35) 
0.0

>  <TOX21_HRE_BLA_Agonist_ratio>  (35) 
0.0

>  <TOX21_HRE_BLA_Agonist_viability>  (35) 
0.0

>  <TOX21_HSE_BLA_agonist_ch1>  (35) 
0.0

>  <TOX21_HSE_BLA_agonist_ch2>  (35) 
0.0

>  <TOX21_HSE_BLA_agonist_ratio>  (35) 
0.0

>  <TOX21_HSE_BLA_agonist_viability>  (35) 
0.0

>  <TOX21_LUC_Biochem>  (35) 
0.0

>  <TOX21_MMP_fitc>  (35) 
0.0

>  <TOX21_MMP_ratio_down>  (35) 
0.0

>  <TOX21_MMP_ratio_up>  (35) 
0.0

>  <TOX21_MMP_rhodamine>  (35) 
0.0

>  <TOX21_MMP_viability>  (35) 
0.0

>  <TOX21_NFkB_BLA_agonist_ch1>  (35) 
0.0

>  <TOX21_NFkB_BLA_agonist_ch2>  (35) 
0.0

>  <TOX21_NFkB_BLA_agonist_ratio>  (35) 
0.0

>  <TOX21_NFkB_BLA_agonist_viability>  (35) 
0.0

>  <TOX21_PGC_ERR_Agonist>  (35) 
0.0

>  <TOX21_PGC_ERR_Antagonist>  (35) 
0.0

>  <TOX21_PGC_ERR_viability>  (35) 
0.0

>  <TOX21_PPARd_BLA_Agonist_viability>  (35) 
0.0

>  <TOX21_PPARd_BLA_Antagonist_ch1>  (35) 
0.0

>  <TOX21_PPARd_BLA_Antagonist_ch2>  (35) 
0.0

>  <TOX21_PPARd_BLA_agonist_ch1>  (35) 
0.0

>  <TOX21_PPARd_BLA_agonist_ch2>  (35) 
0.0

>  <TOX21_PPARd_BLA_agonist_ratio>  (35) 
0.0

>  <TOX21_PPARd_BLA_antagonist_ratio>  (35) 
0.0

>  <TOX21_PPARd_BLA_antagonist_viability>  (35) 
0.0

>  <TOX21_PPARg_BLA_Agonist_ch1>  (35) 
0.0

>  <TOX21_PPARg_BLA_Agonist_ch2>  (35) 
0.0

>  <TOX21_PPARg_BLA_Agonist_ratio>  (35) 
0.0

>  <TOX21_PPARg_BLA_Antagonist_ch1>  (35) 
0.0

>  <TOX21_PPARg_BLA_Antagonist_ch2>  (35) 
0.0

>  <TOX21_PPARg_BLA_antagonist_ratio>  (35) 
0.0

>  <TOX21_PPARg_BLA_antagonist_viability>  (35) 
0.0

>  <TOX21_PR_BLA_Agonist_ch1>  (35) 
0.0

>  <TOX21_PR_BLA_Agonist_ch2>  (35) 
0.0

>  <TOX21_PR_BLA_Agonist_ratio>  (35) 
0.0

>  <TOX21_PR_BLA_Antagonist_ch1>  (35) 
0.0

>  <TOX21_PR_BLA_Antagonist_ch2>  (35) 
0.0

>  <TOX21_PR_BLA_Antagonist_ratio>  (35) 
0.0

>  <TOX21_PR_BLA_Antagonist_viability>  (35) 
0.0

>  <TOX21_PXR_Agonist>  (35) 
0.0

>  <TOX21_PXR_viability>  (35) 
0.0

>  <TOX21_RAR_LUC_Agonist>  (35) 
0.0

>  <TOX21_RAR_LUC_Agonist_viability>  (35) 
0.0

>  <TOX21_RAR_LUC_Antagonist_viability>  (35) 
0.0

>  <TOX21_RORg_LUC_CHO_Antagonist>  (35) 
0.0

>  <TOX21_RORg_LUC_CHO_Antagonist_viability>  (35) 
0.0

>  <TOX21_RT_HEK293_FLO_00hr_viability>  (35) 
0.0

>  <TOX21_RT_HEK293_FLO_08hr_viability>  (35) 
0.0

>  <TOX21_RT_HEK293_FLO_16hr_viability>  (35) 
0.0

>  <TOX21_RT_HEK293_FLO_24hr_viability>  (35) 
0.0

>  <TOX21_RT_HEK293_FLO_32hr_viability>  (35) 
0.0

>  <TOX21_RT_HEK293_FLO_40hr_viability>  (35) 
0.0

>  <TOX21_RT_HEK293_GLO_00hr_viability>  (35) 
0.0

>  <TOX21_RT_HEK293_GLO_08hr_viability>  (35) 
0.0

>  <TOX21_RT_HEK293_GLO_16hr_viability>  (35) 
0.0

>  <TOX21_RT_HEK293_GLO_24hr_viability>  (35) 
0.0

>  <TOX21_RT_HEK293_GLO_32hr_viability>  (35) 
0.0

>  <TOX21_RT_HEK293_GLO_40hr_viability>  (35) 
0.0

>  <TOX21_RT_HEPG2_FLO_00hr_ctrl_viability>  (35) 
0.0

>  <TOX21_RT_HEPG2_FLO_08hr_viability>  (35) 
0.0

>  <TOX21_RT_HEPG2_FLO_16hr_ctrl_viability>  (35) 
0.0

>  <TOX21_RT_HEPG2_FLO_24hr_viability>  (35) 
0.0

>  <TOX21_RT_HEPG2_FLO_32hr_ctrl_viability>  (35) 
0.0

>  <TOX21_RT_HEPG2_GLO_00hr_ctrl_viability>  (35) 
0.0

>  <TOX21_RT_HEPG2_GLO_08hr_ctrl_viability>  (35) 
0.0

>  <TOX21_RT_HEPG2_GLO_16hr_ctrl_viability>  (35) 
0.0

>  <TOX21_RT_HEPG2_GLO_24hr_ctrl_viability>  (35) 
0.0

>  <TOX21_RT_HEPG2_GLO_32hr_ctrl_viability>  (35) 
0.0

>  <TOX21_RT_HEPG2_GLO_40hr_viability>  (35) 
0.0

>  <TOX21_RXR_BLA_Agonist_ch1>  (35) 
0.0

>  <TOX21_RXR_BLA_Agonist_ch2>  (35) 
0.0

>  <TOX21_RXR_BLA_Agonist_ratio>  (35) 
0.0

>  <TOX21_RXR_BLA_Agonist_viability>  (35) 
0.0

>  <TOX21_SBE_BLA_Agonist_ch1>  (35) 
0.0

>  <TOX21_SBE_BLA_Agonist_ch2>  (35) 
0.0

>  <TOX21_SBE_BLA_Agonist_ratio>  (35) 
0.0

>  <TOX21_SBE_BLA_Agonist_viability>  (35) 
0.0

>  <TOX21_SBE_BLA_Antagonist_ch1>  (35) 
0.0

>  <TOX21_SBE_BLA_Antagonist_ch2>  (35) 
0.0

>  <TOX21_SBE_BLA_Antagonist_ratio>  (35) 
0.0

>  <TOX21_SBE_BLA_Antagonist_viability>  (35) 
0.0

>  <TOX21_SSH_3T3_GLI3_Agonist>  (35) 
0.0

>  <TOX21_SSH_3T3_GLI3_Agonist_viability>  (35) 
0.0

>  <TOX21_SSH_3T3_GLI3_Antagonist>  (35) 
0.0

>  <TOX21_SSH_3T3_GLI3_Antagonist_viability>  (35) 
0.0

>  <TOX21_TRHR_HEK293_Agonist>  (35) 
0.0

>  <TOX21_TRHR_HEK293_Antagonist>  (35) 
0.0

>  <TOX21_TR_LUC_GH3_Agonist>  (35) 
0.0

>  <TOX21_TR_LUC_GH3_Antagonist>  (35) 
0.0

>  <TOX21_TR_LUC_GH3_Antagonist_viability>  (35) 
0.0

>  <TOX21_TSHR_Agonist_ch2>  (35) 
0.0

>  <TOX21_TSHR_Antagonist_ch2>  (35) 
0.0

>  <TOX21_TSHR_Antagonist_ratio>  (35) 
0.0

>  <TOX21_TSHR_HTRF_Agonist_ch1>  (35) 
0.0

>  <TOX21_TSHR_HTRF_Antagonist_ch1>  (35) 
0.0

>  <TOX21_TSHR_wt_HTRF_ch1>  (35) 
0.0

>  <TOX21_TSHR_wt_ch2>  (35) 
0.0

>  <TOX21_TSHR_wt_ratio>  (35) 
0.0

>  <TOX21_VDR_BLA_Agonist_viability>  (35) 
0.0

>  <TOX21_VDR_BLA_Antagonist_ch1>  (35) 
0.0

>  <TOX21_VDR_BLA_Antagonist_ch2>  (35) 
0.0

>  <TOX21_VDR_BLA_agonist_ch1>  (35) 
0.0

>  <TOX21_VDR_BLA_agonist_ch2>  (35) 
0.0

>  <TOX21_VDR_BLA_agonist_ratio>  (35) 
0.0

>  <TOX21_VDR_BLA_antagonist_ratio>  (35) 
0.0

>  <TOX21_VDR_BLA_antagonist_viability>  (35) 
0.0

>  <TOX21_p53_BLA_p1_ch1>  (35) 
0.0

>  <TOX21_p53_BLA_p1_ch2>  (35) 
0.0

>  <TOX21_p53_BLA_p1_ratio>  (35) 
0.0

>  <TOX21_p53_BLA_p1_viability>  (35) 
0.0

>  <TOX21_p53_BLA_p2_ch1>  (35) 
0.0

>  <TOX21_p53_BLA_p2_ch2>  (35) 
0.0

>  <TOX21_p53_BLA_p2_ratio>  (35) 
0.0

>  <TOX21_p53_BLA_p2_viability>  (35) 
0.0

>  <TOX21_p53_BLA_p3_ch1>  (35) 
0.0

>  <TOX21_p53_BLA_p3_ch2>  (35) 
0.0

>  <TOX21_p53_BLA_p3_ratio>  (35) 
0.0

>  <TOX21_p53_BLA_p4_ch1>  (35) 
0.0

>  <TOX21_p53_BLA_p4_ch2>  (35) 
0.0

>  <TOX21_p53_BLA_p4_ratio>  (35) 
0.0

>  <TOX21_p53_BLA_p4_viability>  (35) 
0.0

>  <TOX21_p53_BLA_p5_ch1>  (35) 
0.0

>  <TOX21_p53_BLA_p5_ch2>  (35) 
0.0

>  <TOX21_p53_BLA_p5_ratio>  (35) 
0.0

>  <TOX21_p53_BLA_p5_viability>  (35) 
0.0

>  <Tanguay_ZF_120hpf_AXIS_up>  (35) 
0.0

>  <Tanguay_ZF_120hpf_ActivityScore>  (35) 
0.0

>  <Tanguay_ZF_120hpf_BRAI_up>  (35) 
0.0

>  <Tanguay_ZF_120hpf_CFIN_up>  (35) 
0.0

>  <Tanguay_ZF_120hpf_CIRC_up>  (35) 
0.0

>  <Tanguay_ZF_120hpf_EYE_up>  (35) 
0.0

>  <Tanguay_ZF_120hpf_JAW_up>  (35) 
0.0

>  <Tanguay_ZF_120hpf_MORT_up>  (35) 
0.0

>  <Tanguay_ZF_120hpf_NC_up>  (35) 
0.0

>  <Tanguay_ZF_120hpf_OTIC_up>  (35) 
0.0

>  <Tanguay_ZF_120hpf_PE_up>  (35) 
0.0

>  <Tanguay_ZF_120hpf_PFIN_up>  (35) 
0.0

>  <Tanguay_ZF_120hpf_PIG_up>  (35) 
0.0

>  <Tanguay_ZF_120hpf_SNOU_up>  (35) 
0.0

>  <Tanguay_ZF_120hpf_SOMI_up>  (35) 
0.0

>  <Tanguay_ZF_120hpf_SWIM_up>  (35) 
0.0

>  <Tanguay_ZF_120hpf_TRUN_up>  (35) 
0.0

>  <Tanguay_ZF_120hpf_TR_up>  (35) 
0.0

>  <Tanguay_ZF_120hpf_YSE_up>  (35) 
0.0

>  <UPITT_HCI_U2OS_AR_TIF2_Nucleoli_Agonist>  (35) 
0.0

>  <UPITT_HCI_U2OS_AR_TIF2_Nucleoli_Antagonist>  (35) 
0.0

>  <UPITT_HCI_U2OS_AR_TIF2_Nucleoli_Cytoplasm_Ratio_Agonist>  (35) 
0.0

>  <UPITT_HCI_U2OS_AR_TIF2_Nucleoli_Cytoplasm_Ratio_Antagonist>  (35) 
0.0

>  <NVS_NR_mERa>  (35) 
0.0

$$$$

     RDKit          3D

 14 13  0  0  0  0  0  0  0  0999 V2000
    0.0000    0.0000    0.0000 C   0  0  0  0  0  0  0  0  0  0  0  0
    0.0000    0.0000    0.0000 C   0  0  0  0  0  0  0  0  0  0  0  0
    0.0000    0.0000    0.0000 C   0  0  0  0  0  0  0  0  0  0  0  0
    0.0000    0.0000    0.0000 C   0  0  0  0  0  0  0  0  0  0  0  0
    0.0000    0.0000    0.0000 Sn  0  0  0  0  0  4  0  0  0  0  0  0
    0.0000    0.0000    0.0000 C   0  0  0  0  0  0  0  0  0  0  0  0
    0.0000    0.0000    0.0000 C   0  0  0  0  0  0  0  0  0  0  0  0
    0.0000    0.0000    0.0000 C   0  0  0  0  0  0  0  0  0  0  0  0
    0.0000    0.0000    0.0000 C   0  0  0  0  0  0  0  0  0  0  0  0
    0.0000    0.0000    0.0000 C   0  0  0  0  0  0  0  0  0  0  0  0
    0.0000    0.0000    0.0000 C   0  0  0  0  0  0  0  0  0  0  0  0
    0.0000    0.0000    0.0000 C   0  0  0  0  0  0  0  0  0  0  0  0
    0.0000    0.0000    0.0000 C   0  0  0  0  0  0  0  0  0  0  0  0
    0.0000    0.0000    0.0000 Cl  0  0  0  0  0  0  0  0  0  0  0  0
  1  2  1  0
  2  3  1  0
  3  4  1  0
  4  5  1  0
  5  6  1  0
  6  7  1  0
  7  8  1  0
  8  9  1  0
  5 10  1  0
 10 11  1  0
 11 12  1  0
 12 13  1  0
  5 14  1  0
M  END
>  <CASRN>  (36) 
1461-22-9

>  <Name>  (36) 
Tributylchlorostannane

>  <Active>  (36) 
0

>  <Inactive>  (36) 
2

>  <Bioactivity>  (36) 
Inactive

>  <Min LEL>  (36) 
nan

>  <Max HDT>  (36) 
200.0

>  <Class>  (36) 
0

>  <Code>  (36) 
C1461229

>  <NVS_NR_hER>  (36) 
0.0

>  <NVS_NR_cAR>  (36) 
1.0

>  <NVS_NR_hAR>  (36) 
0.0

>  <NVS_NR_hGR>  (36) 
1.0

>  <NVS_NR_hPR>  (36) 
1.0

>  <NVS_NR_rAR>  (36) 
1.0

>  <OT_ER_ERaERb_1440>  (36) 
0.0

>  <OT_FXR_FXRSRC1_0480>  (36) 
1.0

>  <OT_PPARg_PPARgSRC1_1440>  (36) 
1.0

>  <OT_FXR_FXRSRC1_1440>  (36) 
1.0

>  <OT_NURR1_NURR1RXRa_0480>  (36) 
0.0

>  <OT_NURR1_NURR1RXRa_1440>  (36) 
0.0

>  <OT_PPARg_PPARgSRC1_0480>  (36) 
0.0

>  <OT_AR_ARELUC_AG_1440>  (36) 
0.0

>  <OT_ERa_EREGFP_0120>  (36) 
1.0

>  <BSK_3C_HLADR_down>  (36) 
1.0

>  <BSK_3C_Vis_down>  (36) 
1.0

>  <BSK_3C_uPAR_down>  (36) 
1.0

>  <ATG_CAR_TRANS_up>  (36) 
0.0

>  <ATG_E2F_CIS_dn>  (36) 
0.0

>  <ATG_EGR_CIS_up>  (36) 
1.0

>  <ATG_ERa_TRANS_dn>  (36) 
1.0

>  <ATG_ERa_TRANS_up>  (36) 
0.0

>  <ATG_FXR_TRANS_dn>  (36) 
0.0

>  <ATG_GLI_CIS_dn>  (36) 
0.0

>  <ATG_GRE_CIS_up>  (36) 
0.0

>  <ATG_LXRa_TRANS_dn>  (36) 
0.0

>  <ATG_LXRa_TRANS_up>  (36) 
0.0

>  <ATG_NRF1_CIS_up>  (36) 
0.0

>  <ATG_NURR1_TRANS_up>  (36) 
1.0

>  <ATG_Sox_CIS_dn>  (36) 
0.0

>  <ATG_Sox_CIS_up>  (36) 
0.0

>  <ATG_Sp1_CIS_up>  (36) 
1.0

>  <ATG_TGFb_CIS_up>  (36) 
0.0

>  <TOX21_ARE_BLA_agonist_ratio>  (36) 
1.0

>  <TOX21_RAR_LUC_Antagonist>  (36) 
1.0

>  <ATG_LXRb_TRANS_dn>  (36) 
0.0

>  <ATG_CAR_TRANS_dn>  (36) 
1.0

>  <ATG_BRE_CIS_dn>  (36) 
0.0

>  <ATG_E2F_CIS_up>  (36) 
0.0

>  <TOX21_TSHR_Agonist_ratio>  (36) 
1.0

>  <ACEA_ER_80hr>  (36) 
0.0

>  <TOX21_CAR_Agonist_viabillity>  (36) 
1.0

>  <TOX21_PR_BLA_Agonist_viability>  (36) 
1.0

>  <TOX21_RT_HEPG2_FLO_40hr_ctrl_viability>  (36) 
1.0

>  <TOX21_AhR_LUC_Agonist_viability>  (36) 
1.0

>  <TOX21_ERR_viability>  (36) 
1.0

>  <TOX21_p53_BLA_p3_viability>  (36) 
1.0

>  <NVS_NR_bER>  (36) 
0.0

>  <ACEA_AR_agonist_80hr>  (36) 
0.0

>  <ACEA_AR_agonist_AUC_viability>  (36) 
1.0

>  <ACEA_AR_antagonist_80hr>  (36) 
1.0

>  <ACEA_AR_antagonist_AUC_viability>  (36) 
1.0

>  <ACEA_ER_AUC_viability>  (36) 
1.0

>  <APR_HepG2_CellCycleArrest_24h_dn>  (36) 
1.0

>  <APR_HepG2_CellCycleArrest_24h_up>  (36) 
0.0

>  <APR_HepG2_CellCycleArrest_72h_dn>  (36) 
1.0

>  <APR_HepG2_CellCycleArrest_72h_up>  (36) 
0.0

>  <APR_HepG2_CellLoss_24h_dn>  (36) 
1.0

>  <APR_HepG2_CellLoss_24h_up>  (36) 
0.0

>  <APR_HepG2_CellLoss_72h_dn>  (36) 
1.0

>  <APR_HepG2_CellLoss_72h_up>  (36) 
0.0

>  <APR_HepG2_MicrotubuleCSK_24h_dn>  (36) 
1.0

>  <APR_HepG2_MicrotubuleCSK_24h_up>  (36) 
0.0

>  <APR_HepG2_MicrotubuleCSK_72h_dn>  (36) 
0.0

>  <APR_HepG2_MicrotubuleCSK_72h_up>  (36) 
0.0

>  <APR_HepG2_MitoMass_24h_dn>  (36) 
0.0

>  <APR_HepG2_MitoMass_24h_up>  (36) 
1.0

>  <APR_HepG2_MitoMass_72h_dn>  (36) 
0.0

>  <APR_HepG2_MitoMass_72h_up>  (36) 
0.0

>  <APR_HepG2_MitoMembPot_24h_dn>  (36) 
1.0

>  <APR_HepG2_MitoMembPot_24h_up>  (36) 
0.0

>  <APR_HepG2_MitoMembPot_72h_dn>  (36) 
0.0

>  <APR_HepG2_MitoMembPot_72h_up>  (36) 
0.0

>  <APR_HepG2_MitoticArrest_24h_dn>  (36) 
0.0

>  <APR_HepG2_MitoticArrest_24h_up>  (36) 
1.0

>  <APR_HepG2_MitoticArrest_72h_dn>  (36) 
0.0

>  <APR_HepG2_MitoticArrest_72h_up>  (36) 
1.0

>  <APR_HepG2_NuclearSize_24h_dn>  (36) 
0.0

>  <APR_HepG2_NuclearSize_24h_up>  (36) 
0.0

>  <APR_HepG2_NuclearSize_72h_dn>  (36) 
0.0

>  <APR_HepG2_NuclearSize_72h_up>  (36) 
0.0

>  <APR_HepG2_OxidativeStress_24h_dn>  (36) 
0.0

>  <APR_HepG2_OxidativeStress_24h_up>  (36) 
1.0

>  <APR_HepG2_OxidativeStress_72h_dn>  (36) 
0.0

>  <APR_HepG2_OxidativeStress_72h_up>  (36) 
1.0

>  <APR_HepG2_StressKinase_24h_dn>  (36) 
0.0

>  <APR_HepG2_StressKinase_24h_up>  (36) 
1.0

>  <APR_HepG2_StressKinase_72h_dn>  (36) 
0.0

>  <APR_HepG2_StressKinase_72h_up>  (36) 
0.0

>  <APR_HepG2_p53Act_24h_dn>  (36) 
0.0

>  <APR_HepG2_p53Act_24h_up>  (36) 
1.0

>  <APR_HepG2_p53Act_72h_dn>  (36) 
0.0

>  <APR_HepG2_p53Act_72h_up>  (36) 
1.0

>  <ATG_AP_1_CIS_dn>  (36) 
0.0

>  <ATG_AP_1_CIS_up>  (36) 
1.0

>  <ATG_AP_2_CIS_dn>  (36) 
1.0

>  <ATG_AP_2_CIS_up>  (36) 
0.0

>  <ATG_AR_TRANS_dn>  (36) 
0.0

>  <ATG_AR_TRANS_up>  (36) 
1.0

>  <ATG_Ahr_CIS_dn>  (36) 
0.0

>  <ATG_Ahr_CIS_up>  (36) 
0.0

>  <ATG_BRE_CIS_up>  (36) 
0.0

>  <ATG_CMV_CIS_dn>  (36) 
0.0

>  <ATG_CMV_CIS_up>  (36) 
1.0

>  <ATG_CRE_CIS_dn>  (36) 
0.0

>  <ATG_CRE_CIS_up>  (36) 
0.0

>  <ATG_C_EBP_CIS_dn>  (36) 
0.0

>  <ATG_C_EBP_CIS_up>  (36) 
1.0

>  <ATG_DR4_LXR_CIS_dn>  (36) 
1.0

>  <ATG_DR4_LXR_CIS_up>  (36) 
0.0

>  <ATG_DR5_CIS_dn>  (36) 
0.0

>  <ATG_DR5_CIS_up>  (36) 
1.0

>  <ATG_EGR_CIS_dn>  (36) 
0.0

>  <ATG_ERE_CIS_dn>  (36) 
0.0

>  <ATG_ERE_CIS_up>  (36) 
0.0

>  <ATG_ERRa_TRANS_dn>  (36) 
1.0

>  <ATG_ERRa_TRANS_up>  (36) 
0.0

>  <ATG_ERRg_TRANS_dn>  (36) 
0.0

>  <ATG_ERRg_TRANS_up>  (36) 
0.0

>  <ATG_E_Box_CIS_dn>  (36) 
1.0

>  <ATG_E_Box_CIS_up>  (36) 
0.0

>  <ATG_Ets_CIS_dn>  (36) 
0.0

>  <ATG_Ets_CIS_up>  (36) 
0.0

>  <ATG_FXR_TRANS_up>  (36) 
0.0

>  <ATG_FoxA2_CIS_dn>  (36) 
0.0

>  <ATG_FoxA2_CIS_up>  (36) 
0.0

>  <ATG_FoxO_CIS_dn>  (36) 
0.0

>  <ATG_FoxO_CIS_up>  (36) 
0.0

>  <ATG_GAL4_TRANS_dn>  (36) 
1.0

>  <ATG_GAL4_TRANS_up>  (36) 
0.0

>  <ATG_GATA_CIS_dn>  (36) 
0.0

>  <ATG_GATA_CIS_up>  (36) 
0.0

>  <ATG_GLI_CIS_up>  (36) 
0.0

>  <ATG_GRE_CIS_dn>  (36) 
0.0

>  <ATG_GR_TRANS_dn>  (36) 
0.0

>  <ATG_GR_TRANS_up>  (36) 
1.0

>  <ATG_HIF1a_CIS_dn>  (36) 
0.0

>  <ATG_HIF1a_CIS_up>  (36) 
0.0

>  <ATG_HNF4a_TRANS_dn>  (36) 
0.0

>  <ATG_HNF4a_TRANS_up>  (36) 
0.0

>  <ATG_HNF6_CIS_dn>  (36) 
0.0

>  <ATG_HNF6_CIS_up>  (36) 
0.0

>  <ATG_HSE_CIS_dn>  (36) 
0.0

>  <ATG_HSE_CIS_up>  (36) 
1.0

>  <ATG_IR1_CIS_dn>  (36) 
0.0

>  <ATG_IR1_CIS_up>  (36) 
1.0

>  <ATG_ISRE_CIS_dn>  (36) 
1.0

>  <ATG_ISRE_CIS_up>  (36) 
0.0

>  <ATG_LXRb_TRANS_up>  (36) 
0.0

>  <ATG_MRE_CIS_dn>  (36) 
0.0

>  <ATG_MRE_CIS_up>  (36) 
1.0

>  <ATG_M_06_CIS_dn>  (36) 
0.0

>  <ATG_M_06_CIS_up>  (36) 
0.0

>  <ATG_M_06_TRANS_dn>  (36) 
0.0

>  <ATG_M_06_TRANS_up>  (36) 
0.0

>  <ATG_M_19_CIS_dn>  (36) 
0.0

>  <ATG_M_19_CIS_up>  (36) 
0.0

>  <ATG_M_19_TRANS_dn>  (36) 
0.0

>  <ATG_M_19_TRANS_up>  (36) 
0.0

>  <ATG_M_32_CIS_dn>  (36) 
1.0

>  <ATG_M_32_CIS_up>  (36) 
0.0

>  <ATG_M_32_TRANS_dn>  (36) 
0.0

>  <ATG_M_32_TRANS_up>  (36) 
0.0

>  <ATG_M_61_CIS_dn>  (36) 
0.0

>  <ATG_M_61_CIS_up>  (36) 
0.0

>  <ATG_M_61_TRANS_dn>  (36) 
0.0

>  <ATG_M_61_TRANS_up>  (36) 
0.0

>  <ATG_Myb_CIS_dn>  (36) 
0.0

>  <ATG_Myb_CIS_up>  (36) 
0.0

>  <ATG_Myc_CIS_dn>  (36) 
0.0

>  <ATG_Myc_CIS_up>  (36) 
0.0

>  <ATG_NFI_CIS_dn>  (36) 
0.0

>  <ATG_NFI_CIS_up>  (36) 
0.0

>  <ATG_NF_kB_CIS_dn>  (36) 
1.0

>  <ATG_NF_kB_CIS_up>  (36) 
0.0

>  <ATG_NRF1_CIS_dn>  (36) 
0.0

>  <ATG_NRF2_ARE_CIS_dn>  (36) 
0.0

>  <ATG_NRF2_ARE_CIS_up>  (36) 
1.0

>  <ATG_NURR1_TRANS_dn>  (36) 
0.0

>  <ATG_Oct_MLP_CIS_dn>  (36) 
0.0

>  <ATG_Oct_MLP_CIS_up>  (36) 
1.0

>  <ATG_PBREM_CIS_dn>  (36) 
0.0

>  <ATG_PBREM_CIS_up>  (36) 
0.0

>  <ATG_PPARa_TRANS_dn>  (36) 
0.0

>  <ATG_PPARa_TRANS_up>  (36) 
0.0

>  <ATG_PPARd_TRANS_dn>  (36) 
0.0

>  <ATG_PPARd_TRANS_up>  (36) 
0.0

>  <ATG_PPARg_TRANS_dn>  (36) 
0.0

>  <ATG_PPARg_TRANS_up>  (36) 
1.0

>  <ATG_PPRE_CIS_dn>  (36) 
0.0

>  <ATG_PPRE_CIS_up>  (36) 
1.0

>  <ATG_PXRE_CIS_dn>  (36) 
0.0

>  <ATG_PXRE_CIS_up>  (36) 
0.0

>  <ATG_PXR_TRANS_dn>  (36) 
0.0

>  <ATG_PXR_TRANS_up>  (36) 
1.0

>  <ATG_Pax6_CIS_dn>  (36) 
0.0

>  <ATG_Pax6_CIS_up>  (36) 
1.0

>  <ATG_RARa_TRANS_dn>  (36) 
1.0

>  <ATG_RARa_TRANS_up>  (36) 
0.0

>  <ATG_RARb_TRANS_dn>  (36) 
1.0

>  <ATG_RARb_TRANS_up>  (36) 
0.0

>  <ATG_RARg_TRANS_dn>  (36) 
0.0

>  <ATG_RARg_TRANS_up>  (36) 
0.0

>  <ATG_RORE_CIS_dn>  (36) 
0.0

>  <ATG_RORE_CIS_up>  (36) 
0.0

>  <ATG_RORb_TRANS_dn>  (36) 
1.0

>  <ATG_RORb_TRANS_up>  (36) 
0.0

>  <ATG_RORg_TRANS_dn>  (36) 
1.0

>  <ATG_RORg_TRANS_up>  (36) 
0.0

>  <ATG_RXRa_TRANS_dn>  (36) 
0.0

>  <ATG_RXRa_TRANS_up>  (36) 
1.0

>  <ATG_RXRb_TRANS_dn>  (36) 
0.0

>  <ATG_RXRb_TRANS_up>  (36) 
1.0

>  <ATG_SREBP_CIS_dn>  (36) 
0.0

>  <ATG_SREBP_CIS_up>  (36) 
0.0

>  <ATG_STAT3_CIS_dn>  (36) 
0.0

>  <ATG_STAT3_CIS_up>  (36) 
0.0

>  <ATG_Sp1_CIS_dn>  (36) 
0.0

>  <ATG_TAL_CIS_dn>  (36) 
0.0

>  <ATG_TAL_CIS_up>  (36) 
0.0

>  <ATG_TA_CIS_dn>  (36) 
0.0

>  <ATG_TA_CIS_up>  (36) 
1.0

>  <ATG_TCF_b_cat_CIS_dn>  (36) 
1.0

>  <ATG_TCF_b_cat_CIS_up>  (36) 
0.0

>  <ATG_TGFb_CIS_dn>  (36) 
0.0

>  <ATG_THRa1_TRANS_dn>  (36) 
0.0

>  <ATG_THRa1_TRANS_up>  (36) 
0.0

>  <ATG_VDRE_CIS_dn>  (36) 
0.0

>  <ATG_VDRE_CIS_up>  (36) 
1.0

>  <ATG_VDR_TRANS_dn>  (36) 
0.0

>  <ATG_VDR_TRANS_up>  (36) 
1.0

>  <ATG_XTT_Cytotoxicity_up>  (36) 
1.0

>  <ATG_Xbp1_CIS_dn>  (36) 
0.0

>  <ATG_Xbp1_CIS_up>  (36) 
1.0

>  <ATG_p53_CIS_dn>  (36) 
1.0

>  <ATG_p53_CIS_up>  (36) 
0.0

>  <BSK_3C_Eselectin_down>  (36) 
1.0

>  <BSK_3C_Eselectin_up>  (36) 
0.0

>  <BSK_3C_HLADR_up>  (36) 
0.0

>  <BSK_3C_ICAM1_down>  (36) 
1.0

>  <BSK_3C_ICAM1_up>  (36) 
0.0

>  <BSK_3C_IL8_down>  (36) 
1.0

>  <BSK_3C_IL8_up>  (36) 
0.0

>  <BSK_3C_MCP1_down>  (36) 
1.0

>  <BSK_3C_MCP1_up>  (36) 
0.0

>  <BSK_3C_MIG_down>  (36) 
1.0

>  <BSK_3C_MIG_up>  (36) 
0.0

>  <BSK_3C_Proliferation_down>  (36) 
1.0

>  <BSK_3C_Proliferation_up>  (36) 
0.0

>  <BSK_3C_SRB_down>  (36) 
1.0

>  <BSK_3C_SRB_up>  (36) 
0.0

>  <BSK_3C_Thrombomodulin_down>  (36) 
0.0

>  <BSK_3C_Thrombomodulin_up>  (36) 
1.0

>  <BSK_3C_TissueFactor_down>  (36) 
1.0

>  <BSK_3C_TissueFactor_up>  (36) 
0.0

>  <BSK_3C_VCAM1_down>  (36) 
1.0

>  <BSK_3C_VCAM1_up>  (36) 
0.0

>  <BSK_3C_Vis_up>  (36) 
0.0

>  <BSK_3C_uPAR_up>  (36) 
0.0

>  <BSK_4H_Eotaxin3_down>  (36) 
1.0

>  <BSK_4H_Eotaxin3_up>  (36) 
0.0

>  <BSK_4H_MCP1_down>  (36) 
1.0

>  <BSK_4H_MCP1_up>  (36) 
0.0

>  <BSK_4H_Pselectin_down>  (36) 
1.0

>  <BSK_4H_Pselectin_up>  (36) 
0.0

>  <BSK_4H_SRB_down>  (36) 
1.0

>  <BSK_4H_SRB_up>  (36) 
0.0

>  <BSK_4H_VCAM1_down>  (36) 
1.0

>  <BSK_4H_VCAM1_up>  (36) 
0.0

>  <BSK_4H_VEGFRII_down>  (36) 
0.0

>  <BSK_4H_VEGFRII_up>  (36) 
0.0

>  <BSK_4H_uPAR_down>  (36) 
1.0

>  <BSK_4H_uPAR_up>  (36) 
0.0

>  <BSK_BE3C_HLADR_down>  (36) 
1.0

>  <BSK_BE3C_HLADR_up>  (36) 
0.0

>  <BSK_BE3C_IL1a_down>  (36) 
1.0

>  <BSK_BE3C_IL1a_up>  (36) 
0.0

>  <BSK_BE3C_IP10_down>  (36) 
1.0

>  <BSK_BE3C_IP10_up>  (36) 
0.0

>  <BSK_BE3C_MIG_down>  (36) 
1.0

>  <BSK_BE3C_MIG_up>  (36) 
0.0

>  <BSK_BE3C_MMP1_down>  (36) 
1.0

>  <BSK_BE3C_MMP1_up>  (36) 
0.0

>  <BSK_BE3C_PAI1_down>  (36) 
1.0

>  <BSK_BE3C_PAI1_up>  (36) 
0.0

>  <BSK_BE3C_SRB_down>  (36) 
1.0

>  <BSK_BE3C_SRB_up>  (36) 
0.0

>  <BSK_BE3C_TGFb1_down>  (36) 
1.0

>  <BSK_BE3C_TGFb1_up>  (36) 
0.0

>  <BSK_BE3C_tPA_down>  (36) 
1.0

>  <BSK_BE3C_tPA_up>  (36) 
0.0

>  <BSK_BE3C_uPAR_down>  (36) 
1.0

>  <BSK_BE3C_uPAR_up>  (36) 
0.0

>  <BSK_BE3C_uPA_down>  (36) 
1.0

>  <BSK_BE3C_uPA_up>  (36) 
0.0

>  <BSK_CASM3C_HLADR_down>  (36) 
1.0

>  <BSK_CASM3C_HLADR_up>  (36) 
0.0

>  <BSK_CASM3C_IL6_down>  (36) 
1.0

>  <BSK_CASM3C_IL6_up>  (36) 
0.0

>  <BSK_CASM3C_IL8_down>  (36) 
1.0

>  <BSK_CASM3C_IL8_up>  (36) 
0.0

>  <BSK_CASM3C_LDLR_down>  (36) 
1.0

>  <BSK_CASM3C_LDLR_up>  (36) 
0.0

>  <BSK_CASM3C_MCP1_down>  (36) 
1.0

>  <BSK_CASM3C_MCP1_up>  (36) 
0.0

>  <BSK_CASM3C_MCSF_down>  (36) 
1.0

>  <BSK_CASM3C_MCSF_up>  (36) 
0.0

>  <BSK_CASM3C_MIG_down>  (36) 
1.0

>  <BSK_CASM3C_MIG_up>  (36) 
0.0

>  <BSK_CASM3C_Proliferation_down>  (36) 
1.0

>  <BSK_CASM3C_Proliferation_up>  (36) 
0.0

>  <BSK_CASM3C_SAA_down>  (36) 
1.0

>  <BSK_CASM3C_SAA_up>  (36) 
0.0

>  <BSK_CASM3C_SRB_down>  (36) 
1.0

>  <BSK_CASM3C_SRB_up>  (36) 
0.0

>  <BSK_CASM3C_Thrombomodulin_down>  (36) 
1.0

>  <BSK_CASM3C_Thrombomodulin_up>  (36) 
0.0

>  <BSK_CASM3C_TissueFactor_down>  (36) 
1.0

>  <BSK_CASM3C_TissueFactor_up>  (36) 
0.0

>  <BSK_CASM3C_VCAM1_down>  (36) 
1.0

>  <BSK_CASM3C_VCAM1_up>  (36) 
0.0

>  <BSK_CASM3C_uPAR_down>  (36) 
1.0

>  <BSK_CASM3C_uPAR_up>  (36) 
0.0

>  <BSK_KF3CT_ICAM1_down>  (36) 
1.0

>  <BSK_KF3CT_ICAM1_up>  (36) 
0.0

>  <BSK_KF3CT_IL1a_down>  (36) 
1.0

>  <BSK_KF3CT_IL1a_up>  (36) 
0.0

>  <BSK_KF3CT_IP10_down>  (36) 
1.0

>  <BSK_KF3CT_IP10_up>  (36) 
0.0

>  <BSK_KF3CT_MCP1_down>  (36) 
1.0

>  <BSK_KF3CT_MCP1_up>  (36) 
0.0

>  <BSK_KF3CT_MMP9_down>  (36) 
1.0

>  <BSK_KF3CT_MMP9_up>  (36) 
0.0

>  <BSK_KF3CT_SRB_down>  (36) 
1.0

>  <BSK_KF3CT_SRB_up>  (36) 
0.0

>  <BSK_KF3CT_TGFb1_down>  (36) 
1.0

>  <BSK_KF3CT_TGFb1_up>  (36) 
0.0

>  <BSK_KF3CT_TIMP2_down>  (36) 
1.0

>  <BSK_KF3CT_TIMP2_up>  (36) 
0.0

>  <BSK_KF3CT_uPA_down>  (36) 
1.0

>  <BSK_KF3CT_uPA_up>  (36) 
0.0

>  <BSK_LPS_CD40_down>  (36) 
1.0

>  <BSK_LPS_CD40_up>  (36) 
0.0

>  <BSK_LPS_Eselectin_down>  (36) 
1.0

>  <BSK_LPS_Eselectin_up>  (36) 
0.0

>  <BSK_LPS_IL1a_down>  (36) 
1.0

>  <BSK_LPS_IL1a_up>  (36) 
0.0

>  <BSK_LPS_IL8_down>  (36) 
1.0

>  <BSK_LPS_IL8_up>  (36) 
0.0

>  <BSK_LPS_MCP1_down>  (36) 
1.0

>  <BSK_LPS_MCP1_up>  (36) 
0.0

>  <BSK_LPS_MCSF_down>  (36) 
1.0

>  <BSK_LPS_MCSF_up>  (36) 
0.0

>  <BSK_LPS_PGE2_down>  (36) 
0.0

>  <BSK_LPS_PGE2_up>  (36) 
0.0

>  <BSK_LPS_SRB_down>  (36) 
1.0

>  <BSK_LPS_SRB_up>  (36) 
0.0

>  <BSK_LPS_TNFa_down>  (36) 
1.0

>  <BSK_LPS_TNFa_up>  (36) 
0.0

>  <BSK_LPS_TissueFactor_down>  (36) 
1.0

>  <BSK_LPS_TissueFactor_up>  (36) 
0.0

>  <BSK_LPS_VCAM1_down>  (36) 
1.0

>  <BSK_LPS_VCAM1_up>  (36) 
0.0

>  <BSK_SAg_CD38_down>  (36) 
1.0

>  <BSK_SAg_CD38_up>  (36) 
0.0

>  <BSK_SAg_CD40_down>  (36) 
1.0

>  <BSK_SAg_CD40_up>  (36) 
0.0

>  <BSK_SAg_CD69_down>  (36) 
1.0

>  <BSK_SAg_CD69_up>  (36) 
0.0

>  <BSK_SAg_Eselectin_down>  (36) 
1.0

>  <BSK_SAg_Eselectin_up>  (36) 
0.0

>  <BSK_SAg_IL8_down>  (36) 
1.0

>  <BSK_SAg_IL8_up>  (36) 
0.0

>  <BSK_SAg_MCP1_down>  (36) 
1.0

>  <BSK_SAg_MCP1_up>  (36) 
0.0

>  <BSK_SAg_MIG_down>  (36) 
1.0

>  <BSK_SAg_MIG_up>  (36) 
0.0

>  <BSK_SAg_PBMCCytotoxicity_down>  (36) 
1.0

>  <BSK_SAg_PBMCCytotoxicity_up>  (36) 
0.0

>  <BSK_SAg_Proliferation_down>  (36) 
1.0

>  <BSK_SAg_Proliferation_up>  (36) 
0.0

>  <BSK_SAg_SRB_down>  (36) 
1.0

>  <BSK_SAg_SRB_up>  (36) 
0.0

>  <BSK_hDFCGF_CollagenIII_down>  (36) 
1.0

>  <BSK_hDFCGF_CollagenIII_up>  (36) 
0.0

>  <BSK_hDFCGF_EGFR_down>  (36) 
0.0

>  <BSK_hDFCGF_EGFR_up>  (36) 
0.0

>  <BSK_hDFCGF_IL8_down>  (36) 
1.0

>  <BSK_hDFCGF_IL8_up>  (36) 
0.0

>  <BSK_hDFCGF_IP10_down>  (36) 
1.0

>  <BSK_hDFCGF_IP10_up>  (36) 
0.0

>  <BSK_hDFCGF_MCSF_down>  (36) 
1.0

>  <BSK_hDFCGF_MCSF_up>  (36) 
0.0

>  <BSK_hDFCGF_MIG_down>  (36) 
1.0

>  <BSK_hDFCGF_MIG_up>  (36) 
0.0

>  <BSK_hDFCGF_MMP1_down>  (36) 
1.0

>  <BSK_hDFCGF_MMP1_up>  (36) 
0.0

>  <BSK_hDFCGF_PAI1_down>  (36) 
1.0

>  <BSK_hDFCGF_PAI1_up>  (36) 
0.0

>  <BSK_hDFCGF_Proliferation_down>  (36) 
1.0

>  <BSK_hDFCGF_Proliferation_up>  (36) 
0.0

>  <BSK_hDFCGF_SRB_down>  (36) 
1.0

>  <BSK_hDFCGF_SRB_up>  (36) 
0.0

>  <BSK_hDFCGF_TIMP1_down>  (36) 
1.0

>  <BSK_hDFCGF_TIMP1_up>  (36) 
0.0

>  <BSK_hDFCGF_VCAM1_down>  (36) 
1.0

>  <BSK_hDFCGF_VCAM1_up>  (36) 
0.0

>  <NHEERL_ZF_144hpf_TERATOSCORE_up>  (36) 
1.0

>  <NIS_HEK293T_CTG_Cytotoxicity>  (36) 
1.0

>  <NIS_RAIU_inhibition>  (36) 
1.0

>  <NVS_ENZ_hAChE>  (36) 
0.0

>  <NVS_ENZ_hAChE_Activator>  (36) 
0.0

>  <NVS_ENZ_hAKT2>  (36) 
0.0

>  <NVS_ENZ_hAKT2_Activator>  (36) 
0.0

>  <NVS_ENZ_hBACE>  (36) 
1.0

>  <NVS_ENZ_hBACE_Activator>  (36) 
0.0

>  <NVS_ENZ_hDUSP3>  (36) 
1.0

>  <NVS_ENZ_hDUSP3_Activator>  (36) 
0.0

>  <NVS_ENZ_hFyn>  (36) 
0.0

>  <NVS_ENZ_hFyn_Activator>  (36) 
0.0

>  <NVS_ENZ_hMMP7>  (36) 
1.0

>  <NVS_ENZ_hMMP7_Activator>  (36) 
0.0

>  <NVS_ENZ_hSIRT1>  (36) 
1.0

>  <NVS_ENZ_hSIRT1_Activator>  (36) 
0.0

>  <NVS_ENZ_rACFSKBinding>  (36) 
1.0

>  <NVS_ENZ_rACFSKBinding_Activator>  (36) 
0.0

>  <NVS_GPCR_bAT2>  (36) 
1.0

>  <NVS_GPCR_bAdoR_NonSelective>  (36) 
0.0

>  <NVS_GPCR_bDR_NonSelective>  (36) 
1.0

>  <NVS_GPCR_bNPY_NonSelective>  (36) 
1.0

>  <NVS_GPCR_g5HT4>  (36) 
1.0

>  <NVS_GPCR_gBK2>  (36) 
1.0

>  <NVS_GPCR_gH2>  (36) 
1.0

>  <NVS_GPCR_gLTB4>  (36) 
1.0

>  <NVS_GPCR_gLTD4>  (36) 
1.0

>  <NVS_GPCR_gMPeripheral_NonSelective>  (36) 
1.0

>  <NVS_GPCR_gOpiateK>  (36) 
1.0

>  <NVS_GPCR_h5HT2A>  (36) 
1.0

>  <NVS_GPCR_h5HT5A>  (36) 
1.0

>  <NVS_GPCR_h5HT6>  (36) 
1.0

>  <NVS_GPCR_h5HT7>  (36) 
1.0

>  <NVS_GPCR_hAT1>  (36) 
1.0

>  <NVS_GPCR_hAdoRA1>  (36) 
1.0

>  <NVS_GPCR_hAdoRA2a>  (36) 
1.0

>  <NVS_GPCR_hAdra2A>  (36) 
1.0

>  <NVS_GPCR_hAdra2C>  (36) 
0.0

>  <NVS_GPCR_hAdrb1>  (36) 
1.0

>  <NVS_GPCR_hAdrb2>  (36) 
1.0

>  <NVS_GPCR_hAdrb3>  (36) 
1.0

>  <NVS_GPCR_hC5a>  (36) 
0.0

>  <NVS_GPCR_hDRD1>  (36) 
1.0

>  <NVS_GPCR_hDRD2s>  (36) 
1.0

>  <NVS_GPCR_hDRD4.4>  (36) 
1.0

>  <NVS_GPCR_hETA>  (36) 
1.0

>  <NVS_GPCR_hETB>  (36) 
1.0

>  <NVS_GPCR_hH1>  (36) 
1.0

>  <NVS_GPCR_hM1>  (36) 
1.0

>  <NVS_GPCR_hM2>  (36) 
0.0

>  <NVS_GPCR_hM3>  (36) 
1.0

>  <NVS_GPCR_hM4>  (36) 
1.0

>  <NVS_GPCR_hM5>  (36) 
0.0

>  <NVS_GPCR_hNK2>  (36) 
1.0

>  <NVS_GPCR_hNPY1>  (36) 
1.0

>  <NVS_GPCR_hNPY2>  (36) 
1.0

>  <NVS_GPCR_hORL1>  (36) 
1.0

>  <NVS_GPCR_hOpiate_D1>  (36) 
1.0

>  <NVS_GPCR_hOpiate_mu>  (36) 
0.0

>  <NVS_GPCR_hTXA2>  (36) 
1.0

>  <NVS_GPCR_hV1A>  (36) 
1.0

>  <NVS_GPCR_mCCKAPeripheral>  (36) 
1.0

>  <NVS_GPCR_mCKKBCentral>  (36) 
1.0

>  <NVS_GPCR_p5HT2C>  (36) 
0.0

>  <NVS_GPCR_r5HT1_NonSelective>  (36) 
1.0

>  <NVS_GPCR_r5HT_NonSelective>  (36) 
1.0

>  <NVS_GPCR_rAdra1A>  (36) 
1.0

>  <NVS_GPCR_rAdra1B>  (36) 
1.0

>  <NVS_GPCR_rAdra1_NonSelective>  (36) 
1.0

>  <NVS_GPCR_rAdra2_NonSelective>  (36) 
1.0

>  <NVS_GPCR_rAdrb_NonSelective>  (36) 
1.0

>  <NVS_GPCR_rCRF>  (36) 
1.0

>  <NVS_GPCR_rGABBR>  (36) 
0.0

>  <NVS_GPCR_rGalanin>  (36) 
1.0

>  <NVS_GPCR_rH3>  (36) 
1.0

>  <NVS_GPCR_rNK1>  (36) 
0.0

>  <NVS_GPCR_rNK3>  (36) 
1.0

>  <NVS_GPCR_rOpiate_NonSelective>  (36) 
1.0

>  <NVS_GPCR_rOpiate_NonSelectiveNa>  (36) 
1.0

>  <NVS_GPCR_rSST>  (36) 
0.0

>  <NVS_GPCR_rTRH>  (36) 
1.0

>  <NVS_GPCR_rVIP_NonSelective>  (36) 
1.0

>  <NVS_GPCR_rabPAF>  (36) 
1.0

>  <NVS_GPCR_rmAdra2B>  (36) 
0.0

>  <NVS_GPCR_rmMGluR1>  (36) 
1.0

>  <NVS_GPCR_rmMGluR5>  (36) 
1.0

>  <NVS_IC_hKhERGCh>  (36) 
1.0

>  <NVS_IC_rCaBTZCHL>  (36) 
1.0

>  <NVS_IC_rCaChN>  (36) 
0.0

>  <NVS_IC_rCaDHPRCh_L>  (36) 
1.0

>  <NVS_IC_rNaCh_site2>  (36) 
1.0

>  <NVS_LGIC_bGABAR_Agonist>  (36) 
0.0

>  <NVS_LGIC_rAMPA>  (36) 
1.0

>  <NVS_NR_bPR>  (36) 
1.0

>  <NVS_NR_hPPARa>  (36) 
1.0

>  <NVS_NR_hPPARg>  (36) 
1.0

>  <NVS_NR_rMR>  (36) 
0.0

>  <NVS_TR_gDAT>  (36) 
1.0

>  <NVS_TR_hAdoT>  (36) 
1.0

>  <NVS_TR_hDAT>  (36) 
1.0

>  <NVS_TR_hNET>  (36) 
1.0

>  <NVS_TR_hSERT>  (36) 
1.0

>  <NVS_TR_rNET>  (36) 
1.0

>  <NVS_TR_rSERT>  (36) 
1.0

>  <OT_AR_ARSRC1_0480>  (36) 
1.0

>  <OT_AR_ARSRC1_0960>  (36) 
1.0

>  <OT_ER_ERaERa_0480>  (36) 
0.0

>  <OT_ER_ERaERa_1440>  (36) 
0.0

>  <OT_ER_ERaERb_0480>  (36) 
0.0

>  <OT_ER_ERbERb_0480>  (36) 
0.0

>  <OT_ER_ERbERb_1440>  (36) 
0.0

>  <OT_ERa_EREGFP_0480>  (36) 
1.0

>  <TOX21_AP1_BLA_Agonist_ch1>  (36) 
1.0

>  <TOX21_AP1_BLA_Agonist_ch2>  (36) 
0.0

>  <TOX21_AP1_BLA_Agonist_ratio>  (36) 
1.0

>  <TOX21_AP1_BLA_Agonist_viability>  (36) 
1.0

>  <TOX21_ARE_BLA_Agonist_ch1>  (36) 
1.0

>  <TOX21_ARE_BLA_Agonist_ch2>  (36) 
0.0

>  <TOX21_ARE_BLA_agonist_viability>  (36) 
1.0

>  <TOX21_AR_BLA_Agonist_ch1>  (36) 
1.0

>  <TOX21_AR_BLA_Agonist_ch2>  (36) 
0.0

>  <TOX21_AR_BLA_Agonist_ratio>  (36) 
1.0

>  <TOX21_AR_BLA_Antagonist_ch1>  (36) 
0.0

>  <TOX21_AR_BLA_Antagonist_ch2>  (36) 
1.0

>  <TOX21_AR_BLA_Antagonist_ratio>  (36) 
1.0

>  <TOX21_AR_BLA_Antagonist_viability>  (36) 
1.0

>  <TOX21_AR_LUC_MDAKB2_Agonist>  (36) 
0.0

>  <TOX21_AR_LUC_MDAKB2_Agonist_3uM_Nilutamide>  (36) 
0.0

>  <TOX21_AR_LUC_MDAKB2_Agonist_3uM_Nilutamide_viability>  (36) 
1.0

>  <TOX21_AR_LUC_MDAKB2_Antagonist_0.5nM_R1881>  (36) 
1.0

>  <TOX21_AR_LUC_MDAKB2_Antagonist_0.5nM_R1881_viability>  (36) 
1.0

>  <TOX21_AR_LUC_MDAKB2_Antagonist_10nM_R1881>  (36) 
1.0

>  <TOX21_AR_LUC_MDAKB2_Antagonist_10nM_R1881_viability>  (36) 
1.0

>  <TOX21_AhR_LUC_Agonist>  (36) 
0.0

>  <TOX21_Aromatase_Inhibition>  (36) 
1.0

>  <TOX21_Aromatase_Inhibition_viability>  (36) 
1.0

>  <TOX21_AutoFluor_HEK293_Cell_blue>  (36) 
0.0

>  <TOX21_AutoFluor_HEK293_Cell_green>  (36) 
0.0

>  <TOX21_AutoFluor_HEK293_Cell_red>  (36) 
0.0

>  <TOX21_AutoFluor_HEK293_Media_blue>  (36) 
0.0

>  <TOX21_AutoFluor_HEK293_Media_green>  (36) 
0.0

>  <TOX21_AutoFluor_HEK293_Media_red>  (36) 
0.0

>  <TOX21_AutoFluor_HEPG2_Cell_blue>  (36) 
0.0

>  <TOX21_AutoFluor_HEPG2_Cell_green>  (36) 
0.0

>  <TOX21_AutoFluor_HEPG2_Cell_red>  (36) 
0.0

>  <TOX21_AutoFluor_HEPG2_Media_blue>  (36) 
0.0

>  <TOX21_AutoFluor_HEPG2_Media_green>  (36) 
0.0

>  <TOX21_AutoFluor_HEPG2_Media_red>  (36) 
0.0

>  <TOX21_CAR_Agonist>  (36) 
0.0

>  <TOX21_CAR_Antagonist>  (36) 
1.0

>  <TOX21_CAR_Antagonist_viability>  (36) 
1.0

>  <TOX21_CASP3_CHO>  (36) 
0.0

>  <TOX21_CASP3_CHO_viability>  (36) 
1.0

>  <TOX21_CASP3_HEPG2>  (36) 
0.0

>  <TOX21_CASP3_HEPG2_viability>  (36) 
1.0

>  <TOX21_DT40>  (36) 
1.0

>  <TOX21_DT40_100>  (36) 
1.0

>  <TOX21_DT40_657>  (36) 
1.0

>  <TOX21_ELG1_LUC_Agonist>  (36) 
0.0

>  <TOX21_ELG1_LUC_Agonist_viability>  (36) 
1.0

>  <TOX21_ERR_Agonist>  (36) 
0.0

>  <TOX21_ERR_Antagonist>  (36) 
1.0

>  <TOX21_ERa_BLA_Agonist_ch1>  (36) 
1.0

>  <TOX21_ERa_BLA_Agonist_ch2>  (36) 
0.0

>  <TOX21_ERa_BLA_Agonist_ratio>  (36) 
1.0

>  <TOX21_ERa_BLA_Antagonist_ch1>  (36) 
1.0

>  <TOX21_ERa_BLA_Antagonist_ch2>  (36) 
1.0

>  <TOX21_ERa_BLA_Antagonist_ratio>  (36) 
1.0

>  <TOX21_ERa_BLA_Antagonist_viability>  (36) 
1.0

>  <TOX21_ERa_LUC_VM7_Agonist>  (36) 
0.0

>  <TOX21_ERa_LUC_VM7_Agonist_10nM_ICI182780>  (36) 
0.0

>  <TOX21_ERa_LUC_VM7_Agonist_10nM_ICI182780_viability>  (36) 
1.0

>  <TOX21_ERa_LUC_VM7_Antagonist_0.1nM_E2>  (36) 
1.0

>  <TOX21_ERa_LUC_VM7_Antagonist_0.1nM_E2_viability>  (36) 
1.0

>  <TOX21_ERa_LUC_VM7_Antagonist_0.5nM_E2>  (36) 
1.0

>  <TOX21_ERa_LUC_VM7_Antagonist_0.5nM_E2_viability>  (36) 
1.0

>  <TOX21_ERb_BLA_Agonist_ch1>  (36) 
1.0

>  <TOX21_ERb_BLA_Agonist_ch2>  (36) 
0.0

>  <TOX21_ERb_BLA_Agonist_ratio>  (36) 
0.0

>  <TOX21_ERb_BLA_Agonist_viability>  (36) 
1.0

>  <TOX21_ERb_BLA_Antagonist_ch1>  (36) 
0.0

>  <TOX21_ERb_BLA_Antagonist_ch2>  (36) 
1.0

>  <TOX21_ERb_BLA_Antagonist_ratio>  (36) 
1.0

>  <TOX21_ERb_BLA_Antagonist_viability>  (36) 
1.0

>  <TOX21_ESRE_BLA_ch1>  (36) 
1.0

>  <TOX21_ESRE_BLA_ch2>  (36) 
0.0

>  <TOX21_ESRE_BLA_ratio>  (36) 
1.0

>  <TOX21_ESRE_BLA_viability>  (36) 
1.0

>  <TOX21_FXR_BLA_Antagonist_ch1>  (36) 
1.0

>  <TOX21_FXR_BLA_Antagonist_ch2>  (36) 
1.0

>  <TOX21_FXR_BLA_agonist_ch1>  (36) 
1.0

>  <TOX21_FXR_BLA_agonist_ch2>  (36) 
0.0

>  <TOX21_FXR_BLA_agonist_ratio>  (36) 
1.0

>  <TOX21_FXR_BLA_agonist_viability>  (36) 
1.0

>  <TOX21_FXR_BLA_antagonist_ratio>  (36) 
1.0

>  <TOX21_FXR_BLA_antagonist_viability>  (36) 
1.0

>  <TOX21_GR_BLA_Agonist_ch1>  (36) 
1.0

>  <TOX21_GR_BLA_Agonist_ch2>  (36) 
0.0

>  <TOX21_GR_BLA_Agonist_ratio>  (36) 
1.0

>  <TOX21_GR_BLA_Antagonist_ch1>  (36) 
0.0

>  <TOX21_GR_BLA_Antagonist_ch2>  (36) 
1.0

>  <TOX21_GR_BLA_Antagonist_ratio>  (36) 
1.0

>  <TOX21_GR_BLA_Antagonist_viability>  (36) 
1.0

>  <TOX21_H2AX_HTRF_CHO_Agonist_ch1>  (36) 
0.0

>  <TOX21_H2AX_HTRF_CHO_Agonist_ch2>  (36) 
0.0

>  <TOX21_H2AX_HTRF_CHO_Agonist_ratio>  (36) 
1.0

>  <TOX21_H2AX_HTRF_CHO_viability>  (36) 
1.0

>  <TOX21_HDAC_Inhibition>  (36) 
0.0

>  <TOX21_HDAC_Inhibition_viability>  (36) 
1.0

>  <TOX21_HRE_BLA_Agonist_ch1>  (36) 
1.0

>  <TOX21_HRE_BLA_Agonist_ch2>  (36) 
0.0

>  <TOX21_HRE_BLA_Agonist_ratio>  (36) 
1.0

>  <TOX21_HRE_BLA_Agonist_viability>  (36) 
1.0

>  <TOX21_HSE_BLA_agonist_ch1>  (36) 
1.0

>  <TOX21_HSE_BLA_agonist_ch2>  (36) 
1.0

>  <TOX21_HSE_BLA_agonist_ratio>  (36) 
1.0

>  <TOX21_HSE_BLA_agonist_viability>  (36) 
1.0

>  <TOX21_LUC_Biochem>  (36) 
0.0

>  <TOX21_MMP_fitc>  (36) 
0.0

>  <TOX21_MMP_ratio_down>  (36) 
1.0

>  <TOX21_MMP_ratio_up>  (36) 
0.0

>  <TOX21_MMP_rhodamine>  (36) 
1.0

>  <TOX21_MMP_viability>  (36) 
1.0

>  <TOX21_NFkB_BLA_agonist_ch1>  (36) 
1.0

>  <TOX21_NFkB_BLA_agonist_ch2>  (36) 
0.0

>  <TOX21_NFkB_BLA_agonist_ratio>  (36) 
1.0

>  <TOX21_NFkB_BLA_agonist_viability>  (36) 
1.0

>  <TOX21_PGC_ERR_Agonist>  (36) 
0.0

>  <TOX21_PGC_ERR_Antagonist>  (36) 
1.0

>  <TOX21_PGC_ERR_viability>  (36) 
1.0

>  <TOX21_PPARd_BLA_Agonist_viability>  (36) 
1.0

>  <TOX21_PPARd_BLA_Antagonist_ch1>  (36) 
0.0

>  <TOX21_PPARd_BLA_Antagonist_ch2>  (36) 
1.0

>  <TOX21_PPARd_BLA_agonist_ch1>  (36) 
1.0

>  <TOX21_PPARd_BLA_agonist_ch2>  (36) 
1.0

>  <TOX21_PPARd_BLA_agonist_ratio>  (36) 
1.0

>  <TOX21_PPARd_BLA_antagonist_ratio>  (36) 
1.0

>  <TOX21_PPARd_BLA_antagonist_viability>  (36) 
1.0

>  <TOX21_PPARg_BLA_Agonist_ch1>  (36) 
1.0

>  <TOX21_PPARg_BLA_Agonist_ch2>  (36) 
1.0

>  <TOX21_PPARg_BLA_Agonist_ratio>  (36) 
1.0

>  <TOX21_PPARg_BLA_Antagonist_ch1>  (36) 
0.0

>  <TOX21_PPARg_BLA_Antagonist_ch2>  (36) 
1.0

>  <TOX21_PPARg_BLA_antagonist_ratio>  (36) 
1.0

>  <TOX21_PPARg_BLA_antagonist_viability>  (36) 
1.0

>  <TOX21_PR_BLA_Agonist_ch1>  (36) 
1.0

>  <TOX21_PR_BLA_Agonist_ch2>  (36) 
0.0

>  <TOX21_PR_BLA_Agonist_ratio>  (36) 
0.0

>  <TOX21_PR_BLA_Antagonist_ch1>  (36) 
0.0

>  <TOX21_PR_BLA_Antagonist_ch2>  (36) 
1.0

>  <TOX21_PR_BLA_Antagonist_ratio>  (36) 
1.0

>  <TOX21_PR_BLA_Antagonist_viability>  (36) 
1.0

>  <TOX21_PXR_Agonist>  (36) 
1.0

>  <TOX21_PXR_viability>  (36) 
1.0

>  <TOX21_RAR_LUC_Agonist>  (36) 
0.0

>  <TOX21_RAR_LUC_Agonist_viability>  (36) 
1.0

>  <TOX21_RAR_LUC_Antagonist_viability>  (36) 
1.0

>  <TOX21_RORg_LUC_CHO_Antagonist>  (36) 
1.0

>  <TOX21_RORg_LUC_CHO_Antagonist_viability>  (36) 
1.0

>  <TOX21_RT_HEK293_FLO_00hr_viability>  (36) 
0.0

>  <TOX21_RT_HEK293_FLO_08hr_viability>  (36) 
1.0

>  <TOX21_RT_HEK293_FLO_16hr_viability>  (36) 
1.0

>  <TOX21_RT_HEK293_FLO_24hr_viability>  (36) 
1.0

>  <TOX21_RT_HEK293_FLO_32hr_viability>  (36) 
1.0

>  <TOX21_RT_HEK293_FLO_40hr_viability>  (36) 
1.0

>  <TOX21_RT_HEK293_GLO_00hr_viability>  (36) 
0.0

>  <TOX21_RT_HEK293_GLO_08hr_viability>  (36) 
1.0

>  <TOX21_RT_HEK293_GLO_16hr_viability>  (36) 
1.0

>  <TOX21_RT_HEK293_GLO_24hr_viability>  (36) 
1.0

>  <TOX21_RT_HEK293_GLO_32hr_viability>  (36) 
1.0

>  <TOX21_RT_HEK293_GLO_40hr_viability>  (36) 
1.0

>  <TOX21_RT_HEPG2_FLO_00hr_ctrl_viability>  (36) 
0.0

>  <TOX21_RT_HEPG2_FLO_08hr_viability>  (36) 
1.0

>  <TOX21_RT_HEPG2_FLO_16hr_ctrl_viability>  (36) 
1.0

>  <TOX21_RT_HEPG2_FLO_24hr_viability>  (36) 
1.0

>  <TOX21_RT_HEPG2_FLO_32hr_ctrl_viability>  (36) 
1.0

>  <TOX21_RT_HEPG2_GLO_00hr_ctrl_viability>  (36) 
0.0

>  <TOX21_RT_HEPG2_GLO_08hr_ctrl_viability>  (36) 
1.0

>  <TOX21_RT_HEPG2_GLO_16hr_ctrl_viability>  (36) 
1.0

>  <TOX21_RT_HEPG2_GLO_24hr_ctrl_viability>  (36) 
1.0

>  <TOX21_RT_HEPG2_GLO_32hr_ctrl_viability>  (36) 
1.0

>  <TOX21_RT_HEPG2_GLO_40hr_viability>  (36) 
1.0

>  <TOX21_RXR_BLA_Agonist_ch1>  (36) 
1.0

>  <TOX21_RXR_BLA_Agonist_ch2>  (36) 
1.0

>  <TOX21_RXR_BLA_Agonist_ratio>  (36) 
1.0

>  <TOX21_RXR_BLA_Agonist_viability>  (36) 
1.0

>  <TOX21_SBE_BLA_Agonist_ch1>  (36) 
1.0

>  <TOX21_SBE_BLA_Agonist_ch2>  (36) 
0.0

>  <TOX21_SBE_BLA_Agonist_ratio>  (36) 
1.0

>  <TOX21_SBE_BLA_Agonist_viability>  (36) 
1.0

>  <TOX21_SBE_BLA_Antagonist_ch1>  (36) 
1.0

>  <TOX21_SBE_BLA_Antagonist_ch2>  (36) 
1.0

>  <TOX21_SBE_BLA_Antagonist_ratio>  (36) 
1.0

>  <TOX21_SBE_BLA_Antagonist_viability>  (36) 
1.0

>  <TOX21_SSH_3T3_GLI3_Agonist>  (36) 
0.0

>  <TOX21_SSH_3T3_GLI3_Agonist_viability>  (36) 
1.0

>  <TOX21_SSH_3T3_GLI3_Antagonist>  (36) 
1.0

>  <TOX21_SSH_3T3_GLI3_Antagonist_viability>  (36) 
1.0

>  <TOX21_TRHR_HEK293_Agonist>  (36) 
1.0

>  <TOX21_TRHR_HEK293_Antagonist>  (36) 
1.0

>  <TOX21_TR_LUC_GH3_Agonist>  (36) 
0.0

>  <TOX21_TR_LUC_GH3_Antagonist>  (36) 
1.0

>  <TOX21_TR_LUC_GH3_Antagonist_viability>  (36) 
1.0

>  <TOX21_TSHR_Agonist_ch2>  (36) 
0.0

>  <TOX21_TSHR_Antagonist_ch2>  (36) 
0.0

>  <TOX21_TSHR_Antagonist_ratio>  (36) 
1.0

>  <TOX21_TSHR_HTRF_Agonist_ch1>  (36) 
1.0

>  <TOX21_TSHR_HTRF_Antagonist_ch1>  (36) 
1.0

>  <TOX21_TSHR_wt_HTRF_ch1>  (36) 
0.0

>  <TOX21_TSHR_wt_ch2>  (36) 
0.0

>  <TOX21_TSHR_wt_ratio>  (36) 
1.0

>  <TOX21_VDR_BLA_Agonist_viability>  (36) 
1.0

>  <TOX21_VDR_BLA_Antagonist_ch1>  (36) 
1.0

>  <TOX21_VDR_BLA_Antagonist_ch2>  (36) 
1.0

>  <TOX21_VDR_BLA_agonist_ch1>  (36) 
0.0

>  <TOX21_VDR_BLA_agonist_ch2>  (36) 
0.0

>  <TOX21_VDR_BLA_agonist_ratio>  (36) 
0.0

>  <TOX21_VDR_BLA_antagonist_ratio>  (36) 
1.0

>  <TOX21_VDR_BLA_antagonist_viability>  (36) 
1.0

>  <TOX21_p53_BLA_p1_ch1>  (36) 
1.0

>  <TOX21_p53_BLA_p1_ch2>  (36) 
0.0

>  <TOX21_p53_BLA_p1_ratio>  (36) 
1.0

>  <TOX21_p53_BLA_p1_viability>  (36) 
1.0

>  <TOX21_p53_BLA_p2_ch1>  (36) 
1.0

>  <TOX21_p53_BLA_p2_ch2>  (36) 
0.0

>  <TOX21_p53_BLA_p2_ratio>  (36) 
1.0

>  <TOX21_p53_BLA_p2_viability>  (36) 
1.0

>  <TOX21_p53_BLA_p3_ch1>  (36) 
1.0

>  <TOX21_p53_BLA_p3_ch2>  (36) 
0.0

>  <TOX21_p53_BLA_p3_ratio>  (36) 
1.0

>  <TOX21_p53_BLA_p4_ch1>  (36) 
1.0

>  <TOX21_p53_BLA_p4_ch2>  (36) 
0.0

>  <TOX21_p53_BLA_p4_ratio>  (36) 
1.0

>  <TOX21_p53_BLA_p4_viability>  (36) 
1.0

>  <TOX21_p53_BLA_p5_ch1>  (36) 
1.0

>  <TOX21_p53_BLA_p5_ch2>  (36) 
0.0

>  <TOX21_p53_BLA_p5_ratio>  (36) 
1.0

>  <TOX21_p53_BLA_p5_viability>  (36) 
1.0

>  <Tanguay_ZF_120hpf_AXIS_up>  (36) 
-1.0

>  <Tanguay_ZF_120hpf_ActivityScore>  (36) 
1.0

>  <Tanguay_ZF_120hpf_BRAI_up>  (36) 
-1.0

>  <Tanguay_ZF_120hpf_CFIN_up>  (36) 
-1.0

>  <Tanguay_ZF_120hpf_CIRC_up>  (36) 
-1.0

>  <Tanguay_ZF_120hpf_EYE_up>  (36) 
-1.0

>  <Tanguay_ZF_120hpf_JAW_up>  (36) 
-1.0

>  <Tanguay_ZF_120hpf_MORT_up>  (36) 
1.0

>  <Tanguay_ZF_120hpf_NC_up>  (36) 
-1.0

>  <Tanguay_ZF_120hpf_OTIC_up>  (36) 
-1.0

>  <Tanguay_ZF_120hpf_PE_up>  (36) 
-1.0

>  <Tanguay_ZF_120hpf_PFIN_up>  (36) 
-1.0

>  <Tanguay_ZF_120hpf_PIG_up>  (36) 
-1.0

>  <Tanguay_ZF_120hpf_SNOU_up>  (36) 
-1.0

>  <Tanguay_ZF_120hpf_SOMI_up>  (36) 
-1.0

>  <Tanguay_ZF_120hpf_SWIM_up>  (36) 
-1.0

>  <Tanguay_ZF_120hpf_TRUN_up>  (36) 
-1.0

>  <Tanguay_ZF_120hpf_TR_up>  (36) 
-1.0

>  <Tanguay_ZF_120hpf_YSE_up>  (36) 
-1.0

>  <UPITT_HCI_U2OS_AR_TIF2_Nucleoli_Agonist>  (36) 
1.0

>  <UPITT_HCI_U2OS_AR_TIF2_Nucleoli_Antagonist>  (36) 
1.0

>  <UPITT_HCI_U2OS_AR_TIF2_Nucleoli_Cytoplasm_Ratio_Agonist>  (36) 
1.0

>  <UPITT_HCI_U2OS_AR_TIF2_Nucleoli_Cytoplasm_Ratio_Antagonist>  (36) 
1.0

>  <NVS_NR_mERa>  (36) 
1

$$$$

     RDKit          3D

 14 14  0  0  0  0  0  0  0  0999 V2000
    0.0000    0.0000    0.0000 C   0  0  0  0  0  0  0  0  0  0  0  0
    0.0000    0.0000    0.0000 C   0  0  0  0  0  0  0  0  0  0  0  0
    0.0000    0.0000    0.0000 N   0  0  0  0  0  0  0  0  0  0  0  0
    0.0000    0.0000    0.0000 C   0  0  0  0  0  0  0  0  0  0  0  0
    0.0000    0.0000    0.0000 N   0  0  0  0  0  0  0  0  0  0  0  0
    0.0000    0.0000    0.0000 C   0  0  0  0  0  0  0  0  0  0  0  0
    0.0000    0.0000    0.0000 N   0  0  0  0  0  0  0  0  0  0  0  0
    0.0000    0.0000    0.0000 C   0  0  0  0  0  0  0  0  0  0  0  0
    0.0000    0.0000    0.0000 N   0  0  0  0  0  0  0  0  0  0  0  0
    0.0000    0.0000    0.0000 Cl  0  0  0  0  0  0  0  0  0  0  0  0
    0.0000    0.0000    0.0000 N   0  0  0  0  0  0  0  0  0  0  0  0
    0.0000    0.0000    0.0000 C   0  0  0  0  0  0  0  0  0  0  0  0
    0.0000    0.0000    0.0000 C   0  0  0  0  0  0  0  0  0  0  0  0
    0.0000    0.0000    0.0000 C   0  0  0  0  0  0  0  0  0  0  0  0
  1  2  1  0
  2  3  1  0
  3  4  1  0
  4  5  2  0
  5  6  1  0
  6  7  2  0
  7  8  1  0
  8  9  2  0
  8 10  1  0
  6 11  1  0
 11 12  1  0
 12 13  1  0
 12 14  1  0
  9  4  1  0
M  END
>  <CASRN>  (37) 
1912-24-9

>  <Name>  (37) 
Atrazine

>  <Active>  (37) 
0

>  <Inactive>  (37) 
2

>  <Bioactivity>  (37) 
Inactive

>  <Min LEL>  (37) 
nan

>  <Max HDT>  (37) 
300.0

>  <Class>  (37) 
0

>  <Code>  (37) 
C1912249

>  <NVS_NR_hER>  (37) 
0.0

>  <NVS_NR_hAR>  (37) 
0.0

>  <NVS_NR_hGR>  (37) 
0.0

>  <NVS_NR_hPR>  (37) 
0.0

>  <NVS_NR_rAR>  (37) 
0.0

>  <OT_ER_ERaERb_1440>  (37) 
0.0

>  <OT_FXR_FXRSRC1_0480>  (37) 
0.0

>  <OT_PPARg_PPARgSRC1_1440>  (37) 
0.0

>  <OT_FXR_FXRSRC1_1440>  (37) 
0.0

>  <OT_NURR1_NURR1RXRa_0480>  (37) 
0.0

>  <OT_NURR1_NURR1RXRa_1440>  (37) 
0.0

>  <OT_PPARg_PPARgSRC1_0480>  (37) 
0.0

>  <OT_AR_ARELUC_AG_1440>  (37) 
0.0

>  <OT_ERa_EREGFP_0120>  (37) 
0.0

>  <BSK_3C_HLADR_down>  (37) 
0.0

>  <BSK_3C_Vis_down>  (37) 
0.0

>  <BSK_3C_uPAR_down>  (37) 
0.0

>  <ATG_CAR_TRANS_up>  (37) 
0.0

>  <ATG_E2F_CIS_dn>  (37) 
0.0

>  <ATG_EGR_CIS_up>  (37) 
0.0

>  <ATG_ERa_TRANS_dn>  (37) 
0.0

>  <ATG_ERa_TRANS_up>  (37) 
0.0

>  <ATG_FXR_TRANS_dn>  (37) 
0.0

>  <ATG_GLI_CIS_dn>  (37) 
0.0

>  <ATG_GRE_CIS_up>  (37) 
0.0

>  <ATG_LXRa_TRANS_dn>  (37) 
0.0

>  <ATG_LXRa_TRANS_up>  (37) 
0.0

>  <ATG_NRF1_CIS_up>  (37) 
0.0

>  <ATG_NURR1_TRANS_up>  (37) 
0.0

>  <ATG_Sox_CIS_dn>  (37) 
0.0

>  <ATG_Sox_CIS_up>  (37) 
0.0

>  <ATG_Sp1_CIS_up>  (37) 
0.0

>  <ATG_TGFb_CIS_up>  (37) 
0.0

>  <TOX21_ARE_BLA_agonist_ratio>  (37) 
0.0

>  <TOX21_RAR_LUC_Antagonist>  (37) 
0.0

>  <ATG_LXRb_TRANS_dn>  (37) 
0.0

>  <ATG_CAR_TRANS_dn>  (37) 
0.0

>  <ATG_BRE_CIS_dn>  (37) 
0.0

>  <ATG_E2F_CIS_up>  (37) 
0.0

>  <TOX21_TSHR_Agonist_ratio>  (37) 
0.0

>  <ACEA_ER_80hr>  (37) 
0.0

>  <TOX21_CAR_Agonist_viabillity>  (37) 
0.0

>  <TOX21_PR_BLA_Agonist_viability>  (37) 
0.0

>  <TOX21_RT_HEPG2_FLO_40hr_ctrl_viability>  (37) 
0.0

>  <TOX21_AhR_LUC_Agonist_viability>  (37) 
0.0

>  <TOX21_ERR_viability>  (37) 
0.0

>  <TOX21_p53_BLA_p3_viability>  (37) 
0.0

>  <NVS_NR_cAR>  (37) 
0.0

>  <NVS_NR_bER>  (37) 
0.0

>  <ACEA_AR_agonist_80hr>  (37) 
0.0

>  <ACEA_AR_agonist_AUC_viability>  (37) 
0.0

>  <ACEA_AR_antagonist_80hr>  (37) 
1.0

>  <ACEA_AR_antagonist_AUC_viability>  (37) 
1.0

>  <ACEA_ER_AUC_viability>  (37) 
0.0

>  <APR_HepG2_CellCycleArrest_1h_dn>  (37) 
0.0

>  <APR_HepG2_CellCycleArrest_1h_up>  (37) 
0.0

>  <APR_HepG2_CellCycleArrest_24h_dn>  (37) 
0.0

>  <APR_HepG2_CellCycleArrest_24h_up>  (37) 
0.0

>  <APR_HepG2_CellCycleArrest_72h_dn>  (37) 
0.0

>  <APR_HepG2_CellCycleArrest_72h_up>  (37) 
0.0

>  <APR_HepG2_CellLoss_1h_dn>  (37) 
0.0

>  <APR_HepG2_CellLoss_1h_up>  (37) 
0.0

>  <APR_HepG2_CellLoss_24h_dn>  (37) 
0.0

>  <APR_HepG2_CellLoss_24h_up>  (37) 
0.0

>  <APR_HepG2_CellLoss_72h_dn>  (37) 
0.0

>  <APR_HepG2_CellLoss_72h_up>  (37) 
0.0

>  <APR_HepG2_MicrotubuleCSK_1h_dn>  (37) 
0.0

>  <APR_HepG2_MicrotubuleCSK_1h_up>  (37) 
0.0

>  <APR_HepG2_MicrotubuleCSK_24h_dn>  (37) 
0.0

>  <APR_HepG2_MicrotubuleCSK_24h_up>  (37) 
0.0

>  <APR_HepG2_MicrotubuleCSK_72h_dn>  (37) 
0.0

>  <APR_HepG2_MicrotubuleCSK_72h_up>  (37) 
0.0

>  <APR_HepG2_MitoMass_1h_dn>  (37) 
0.0

>  <APR_HepG2_MitoMass_1h_up>  (37) 
0.0

>  <APR_HepG2_MitoMass_24h_dn>  (37) 
0.0

>  <APR_HepG2_MitoMass_24h_up>  (37) 
0.0

>  <APR_HepG2_MitoMass_72h_dn>  (37) 
0.0

>  <APR_HepG2_MitoMass_72h_up>  (37) 
0.0

>  <APR_HepG2_MitoMembPot_1h_dn>  (37) 
0.0

>  <APR_HepG2_MitoMembPot_1h_up>  (37) 
0.0

>  <APR_HepG2_MitoMembPot_24h_dn>  (37) 
0.0

>  <APR_HepG2_MitoMembPot_24h_up>  (37) 
0.0

>  <APR_HepG2_MitoMembPot_72h_dn>  (37) 
0.0

>  <APR_HepG2_MitoMembPot_72h_up>  (37) 
0.0

>  <APR_HepG2_MitoticArrest_1h_dn>  (37) 
0.0

>  <APR_HepG2_MitoticArrest_1h_up>  (37) 
0.0

>  <APR_HepG2_MitoticArrest_24h_dn>  (37) 
0.0

>  <APR_HepG2_MitoticArrest_24h_up>  (37) 
0.0

>  <APR_HepG2_MitoticArrest_72h_dn>  (37) 
0.0

>  <APR_HepG2_MitoticArrest_72h_up>  (37) 
0.0

>  <APR_HepG2_NuclearSize_1h_dn>  (37) 
0.0

>  <APR_HepG2_NuclearSize_1h_up>  (37) 
0.0

>  <APR_HepG2_NuclearSize_24h_dn>  (37) 
0.0

>  <APR_HepG2_NuclearSize_24h_up>  (37) 
0.0

>  <APR_HepG2_NuclearSize_72h_dn>  (37) 
0.0

>  <APR_HepG2_NuclearSize_72h_up>  (37) 
0.0

>  <APR_HepG2_OxidativeStress_1h_dn>  (37) 
0.0

>  <APR_HepG2_OxidativeStress_1h_up>  (37) 
0.0

>  <APR_HepG2_OxidativeStress_24h_dn>  (37) 
0.0

>  <APR_HepG2_OxidativeStress_24h_up>  (37) 
0.0

>  <APR_HepG2_OxidativeStress_72h_dn>  (37) 
0.0

>  <APR_HepG2_OxidativeStress_72h_up>  (37) 
0.0

>  <APR_HepG2_StressKinase_1h_dn>  (37) 
0.0

>  <APR_HepG2_StressKinase_1h_up>  (37) 
0.0

>  <APR_HepG2_StressKinase_24h_dn>  (37) 
0.0

>  <APR_HepG2_StressKinase_24h_up>  (37) 
0.0

>  <APR_HepG2_StressKinase_72h_dn>  (37) 
0.0

>  <APR_HepG2_StressKinase_72h_up>  (37) 
0.0

>  <APR_HepG2_p53Act_1h_dn>  (37) 
0.0

>  <APR_HepG2_p53Act_1h_up>  (37) 
0.0

>  <APR_HepG2_p53Act_24h_dn>  (37) 
0.0

>  <APR_HepG2_p53Act_24h_up>  (37) 
0.0

>  <APR_HepG2_p53Act_72h_dn>  (37) 
0.0

>  <APR_HepG2_p53Act_72h_up>  (37) 
0.0

>  <APR_Hepat_Apoptosis_1hr_dn>  (37) 
0.0

>  <APR_Hepat_Apoptosis_1hr_up>  (37) 
0.0

>  <APR_Hepat_Apoptosis_24hr_dn>  (37) 
0.0

>  <APR_Hepat_Apoptosis_24hr_up>  (37) 
0.0

>  <APR_Hepat_Apoptosis_48hr_dn>  (37) 
0.0

>  <APR_Hepat_Apoptosis_48hr_up>  (37) 
0.0

>  <APR_Hepat_CellLoss_1hr_dn>  (37) 
0.0

>  <APR_Hepat_CellLoss_1hr_up>  (37) 
0.0

>  <APR_Hepat_CellLoss_24hr_dn>  (37) 
0.0

>  <APR_Hepat_CellLoss_24hr_up>  (37) 
0.0

>  <APR_Hepat_CellLoss_48hr_dn>  (37) 
0.0

>  <APR_Hepat_CellLoss_48hr_up>  (37) 
0.0

>  <APR_Hepat_DNADamage_1hr_dn>  (37) 
0.0

>  <APR_Hepat_DNADamage_1hr_up>  (37) 
0.0

>  <APR_Hepat_DNADamage_24hr_dn>  (37) 
0.0

>  <APR_Hepat_DNADamage_24hr_up>  (37) 
0.0

>  <APR_Hepat_DNADamage_48hr_dn>  (37) 
0.0

>  <APR_Hepat_DNADamage_48hr_up>  (37) 
0.0

>  <APR_Hepat_DNATexture_1hr_dn>  (37) 
0.0

>  <APR_Hepat_DNATexture_1hr_up>  (37) 
0.0

>  <APR_Hepat_DNATexture_24hr_dn>  (37) 
0.0

>  <APR_Hepat_DNATexture_24hr_up>  (37) 
0.0

>  <APR_Hepat_DNATexture_48hr_dn>  (37) 
0.0

>  <APR_Hepat_DNATexture_48hr_up>  (37) 
0.0

>  <APR_Hepat_LysosomalMass_1hr_dn>  (37) 
0.0

>  <APR_Hepat_LysosomalMass_1hr_up>  (37) 
0.0

>  <APR_Hepat_LysosomalMass_24hr_dn>  (37) 
0.0

>  <APR_Hepat_LysosomalMass_24hr_up>  (37) 
0.0

>  <APR_Hepat_LysosomalMass_48hr_dn>  (37) 
0.0

>  <APR_Hepat_LysosomalMass_48hr_up>  (37) 
0.0

>  <APR_Hepat_MitoFxnI_1hr_dn>  (37) 
0.0

>  <APR_Hepat_MitoFxnI_1hr_up>  (37) 
0.0

>  <APR_Hepat_MitoFxnI_24hr_dn>  (37) 
0.0

>  <APR_Hepat_MitoFxnI_24hr_up>  (37) 
0.0

>  <APR_Hepat_MitoFxnI_48hr_dn>  (37) 
0.0

>  <APR_Hepat_MitoFxnI_48hr_up>  (37) 
0.0

>  <APR_Hepat_NuclearSize_1hr_dn>  (37) 
0.0

>  <APR_Hepat_NuclearSize_1hr_up>  (37) 
0.0

>  <APR_Hepat_NuclearSize_24hr_dn>  (37) 
0.0

>  <APR_Hepat_NuclearSize_24hr_up>  (37) 
0.0

>  <APR_Hepat_NuclearSize_48hr_dn>  (37) 
0.0

>  <APR_Hepat_NuclearSize_48hr_up>  (37) 
0.0

>  <APR_Hepat_Steatosis_1hr_dn>  (37) 
0.0

>  <APR_Hepat_Steatosis_1hr_up>  (37) 
0.0

>  <APR_Hepat_Steatosis_24hr_dn>  (37) 
0.0

>  <APR_Hepat_Steatosis_24hr_up>  (37) 
0.0

>  <APR_Hepat_Steatosis_48hr_dn>  (37) 
0.0

>  <APR_Hepat_Steatosis_48hr_up>  (37) 
0.0

>  <ATG_AP_1_CIS_dn>  (37) 
0.0

>  <ATG_AP_1_CIS_up>  (37) 
0.0

>  <ATG_AP_2_CIS_dn>  (37) 
0.0

>  <ATG_AP_2_CIS_up>  (37) 
0.0

>  <ATG_AR_TRANS_dn>  (37) 
0.0

>  <ATG_AR_TRANS_up>  (37) 
0.0

>  <ATG_Ahr_CIS_dn>  (37) 
0.0

>  <ATG_Ahr_CIS_up>  (37) 
0.0

>  <ATG_BRE_CIS_up>  (37) 
0.0

>  <ATG_CMV_CIS_dn>  (37) 
0.0

>  <ATG_CMV_CIS_up>  (37) 
1.0

>  <ATG_CRE_CIS_dn>  (37) 
0.0

>  <ATG_CRE_CIS_up>  (37) 
0.0

>  <ATG_C_EBP_CIS_dn>  (37) 
0.0

>  <ATG_C_EBP_CIS_up>  (37) 
0.0

>  <ATG_DR4_LXR_CIS_dn>  (37) 
0.0

>  <ATG_DR4_LXR_CIS_up>  (37) 
0.0

>  <ATG_DR5_CIS_dn>  (37) 
0.0

>  <ATG_DR5_CIS_up>  (37) 
0.0

>  <ATG_EGR_CIS_dn>  (37) 
0.0

>  <ATG_ERE_CIS_dn>  (37) 
0.0

>  <ATG_ERE_CIS_up>  (37) 
0.0

>  <ATG_ERRa_TRANS_dn>  (37) 
0.0

>  <ATG_ERRa_TRANS_up>  (37) 
0.0

>  <ATG_ERRg_TRANS_dn>  (37) 
0.0

>  <ATG_ERRg_TRANS_up>  (37) 
0.0

>  <ATG_E_Box_CIS_dn>  (37) 
0.0

>  <ATG_E_Box_CIS_up>  (37) 
0.0

>  <ATG_Ets_CIS_dn>  (37) 
0.0

>  <ATG_Ets_CIS_up>  (37) 
0.0

>  <ATG_FXR_TRANS_up>  (37) 
0.0

>  <ATG_FoxA2_CIS_dn>  (37) 
0.0

>  <ATG_FoxA2_CIS_up>  (37) 
0.0

>  <ATG_FoxO_CIS_dn>  (37) 
0.0

>  <ATG_FoxO_CIS_up>  (37) 
0.0

>  <ATG_GAL4_TRANS_dn>  (37) 
0.0

>  <ATG_GAL4_TRANS_up>  (37) 
0.0

>  <ATG_GATA_CIS_dn>  (37) 
0.0

>  <ATG_GATA_CIS_up>  (37) 
0.0

>  <ATG_GLI_CIS_up>  (37) 
0.0

>  <ATG_GRE_CIS_dn>  (37) 
0.0

>  <ATG_GR_TRANS_dn>  (37) 
0.0

>  <ATG_GR_TRANS_up>  (37) 
0.0

>  <ATG_HIF1a_CIS_dn>  (37) 
0.0

>  <ATG_HIF1a_CIS_up>  (37) 
0.0

>  <ATG_HNF4a_TRANS_dn>  (37) 
0.0

>  <ATG_HNF4a_TRANS_up>  (37) 
0.0

>  <ATG_HNF6_CIS_dn>  (37) 
0.0

>  <ATG_HNF6_CIS_up>  (37) 
0.0

>  <ATG_HSE_CIS_dn>  (37) 
0.0

>  <ATG_HSE_CIS_up>  (37) 
0.0

>  <ATG_Hpa5_TRANS_dn>  (37) 
0.0

>  <ATG_Hpa5_TRANS_up>  (37) 
0.0

>  <ATG_IR1_CIS_dn>  (37) 
0.0

>  <ATG_IR1_CIS_up>  (37) 
0.0

>  <ATG_ISRE_CIS_dn>  (37) 
0.0

>  <ATG_ISRE_CIS_up>  (37) 
0.0

>  <ATG_LXRb_TRANS_up>  (37) 
0.0

>  <ATG_MRE_CIS_dn>  (37) 
0.0

>  <ATG_MRE_CIS_up>  (37) 
0.0

>  <ATG_M_06_CIS_dn>  (37) 
0.0

>  <ATG_M_06_CIS_up>  (37) 
0.0

>  <ATG_M_06_TRANS_dn>  (37) 
0.0

>  <ATG_M_06_TRANS_up>  (37) 
0.0

>  <ATG_M_19_CIS_dn>  (37) 
0.0

>  <ATG_M_19_CIS_up>  (37) 
0.0

>  <ATG_M_19_TRANS_dn>  (37) 
0.0

>  <ATG_M_19_TRANS_up>  (37) 
0.0

>  <ATG_M_32_CIS_dn>  (37) 
0.0

>  <ATG_M_32_CIS_up>  (37) 
0.0

>  <ATG_M_32_TRANS_dn>  (37) 
0.0

>  <ATG_M_32_TRANS_up>  (37) 
0.0

>  <ATG_M_61_CIS_dn>  (37) 
0.0

>  <ATG_M_61_CIS_up>  (37) 
0.0

>  <ATG_M_61_TRANS_dn>  (37) 
0.0

>  <ATG_M_61_TRANS_up>  (37) 
0.0

>  <ATG_Myb_CIS_dn>  (37) 
0.0

>  <ATG_Myb_CIS_up>  (37) 
0.0

>  <ATG_Myc_CIS_dn>  (37) 
0.0

>  <ATG_Myc_CIS_up>  (37) 
0.0

>  <ATG_NFI_CIS_dn>  (37) 
0.0

>  <ATG_NFI_CIS_up>  (37) 
0.0

>  <ATG_NF_kB_CIS_dn>  (37) 
0.0

>  <ATG_NF_kB_CIS_up>  (37) 
0.0

>  <ATG_NRF1_CIS_dn>  (37) 
0.0

>  <ATG_NRF2_ARE_CIS_dn>  (37) 
0.0

>  <ATG_NRF2_ARE_CIS_up>  (37) 
0.0

>  <ATG_NURR1_TRANS_dn>  (37) 
0.0

>  <ATG_Oct_MLP_CIS_dn>  (37) 
0.0

>  <ATG_Oct_MLP_CIS_up>  (37) 
0.0

>  <ATG_PBREM_CIS_dn>  (37) 
0.0

>  <ATG_PBREM_CIS_up>  (37) 
0.0

>  <ATG_PPARa_TRANS_dn>  (37) 
0.0

>  <ATG_PPARa_TRANS_up>  (37) 
0.0

>  <ATG_PPARd_TRANS_dn>  (37) 
0.0

>  <ATG_PPARd_TRANS_up>  (37) 
0.0

>  <ATG_PPARg_TRANS_dn>  (37) 
0.0

>  <ATG_PPARg_TRANS_up>  (37) 
0.0

>  <ATG_PPRE_CIS_dn>  (37) 
0.0

>  <ATG_PPRE_CIS_up>  (37) 
0.0

>  <ATG_PXRE_CIS_dn>  (37) 
0.0

>  <ATG_PXRE_CIS_up>  (37) 
1.0

>  <ATG_PXR_TRANS_dn>  (37) 
0.0

>  <ATG_PXR_TRANS_up>  (37) 
1.0

>  <ATG_Pax6_CIS_dn>  (37) 
0.0

>  <ATG_Pax6_CIS_up>  (37) 
0.0

>  <ATG_RARa_TRANS_dn>  (37) 
0.0

>  <ATG_RARa_TRANS_up>  (37) 
0.0

>  <ATG_RARb_TRANS_dn>  (37) 
0.0

>  <ATG_RARb_TRANS_up>  (37) 
0.0

>  <ATG_RARg_TRANS_dn>  (37) 
0.0

>  <ATG_RARg_TRANS_up>  (37) 
0.0

>  <ATG_RORE_CIS_dn>  (37) 
0.0

>  <ATG_RORE_CIS_up>  (37) 
0.0

>  <ATG_RORb_TRANS_dn>  (37) 
0.0

>  <ATG_RORb_TRANS_up>  (37) 
0.0

>  <ATG_RORg_TRANS_dn>  (37) 
0.0

>  <ATG_RORg_TRANS_up>  (37) 
0.0

>  <ATG_RXRa_TRANS_dn>  (37) 
0.0

>  <ATG_RXRa_TRANS_up>  (37) 
0.0

>  <ATG_RXRb_TRANS_dn>  (37) 
0.0

>  <ATG_RXRb_TRANS_up>  (37) 
0.0

>  <ATG_SREBP_CIS_dn>  (37) 
0.0

>  <ATG_SREBP_CIS_up>  (37) 
0.0

>  <ATG_STAT3_CIS_dn>  (37) 
0.0

>  <ATG_STAT3_CIS_up>  (37) 
0.0

>  <ATG_Sp1_CIS_dn>  (37) 
0.0

>  <ATG_TAL_CIS_dn>  (37) 
0.0

>  <ATG_TAL_CIS_up>  (37) 
0.0

>  <ATG_TA_CIS_dn>  (37) 
0.0

>  <ATG_TA_CIS_up>  (37) 
0.0

>  <ATG_TCF_b_cat_CIS_dn>  (37) 
0.0

>  <ATG_TCF_b_cat_CIS_up>  (37) 
0.0

>  <ATG_TGFb_CIS_dn>  (37) 
0.0

>  <ATG_THRa1_TRANS_dn>  (37) 
0.0

>  <ATG_THRa1_TRANS_up>  (37) 
0.0

>  <ATG_VDRE_CIS_dn>  (37) 
0.0

>  <ATG_VDRE_CIS_up>  (37) 
0.0

>  <ATG_VDR_TRANS_dn>  (37) 
0.0

>  <ATG_VDR_TRANS_up>  (37) 
0.0

>  <ATG_XTT_Cytotoxicity_up>  (37) 
0.0

>  <ATG_Xbp1_CIS_dn>  (37) 
0.0

>  <ATG_Xbp1_CIS_up>  (37) 
0.0

>  <ATG_p53_CIS_dn>  (37) 
0.0

>  <ATG_p53_CIS_up>  (37) 
0.0

>  <BSK_3C_Eselectin_down>  (37) 
0.0

>  <BSK_3C_Eselectin_up>  (37) 
0.0

>  <BSK_3C_HLADR_up>  (37) 
0.0

>  <BSK_3C_ICAM1_down>  (37) 
0.0

>  <BSK_3C_ICAM1_up>  (37) 
0.0

>  <BSK_3C_IL8_down>  (37) 
0.0

>  <BSK_3C_IL8_up>  (37) 
0.0

>  <BSK_3C_MCP1_down>  (37) 
0.0

>  <BSK_3C_MCP1_up>  (37) 
0.0

>  <BSK_3C_MIG_down>  (37) 
0.0

>  <BSK_3C_MIG_up>  (37) 
0.0

>  <BSK_3C_Proliferation_down>  (37) 
0.0

>  <BSK_3C_Proliferation_up>  (37) 
0.0

>  <BSK_3C_SRB_down>  (37) 
0.0

>  <BSK_3C_SRB_up>  (37) 
0.0

>  <BSK_3C_Thrombomodulin_down>  (37) 
0.0

>  <BSK_3C_Thrombomodulin_up>  (37) 
0.0

>  <BSK_3C_TissueFactor_down>  (37) 
0.0

>  <BSK_3C_TissueFactor_up>  (37) 
0.0

>  <BSK_3C_VCAM1_down>  (37) 
0.0

>  <BSK_3C_VCAM1_up>  (37) 
0.0

>  <BSK_3C_Vis_up>  (37) 
0.0

>  <BSK_3C_uPAR_up>  (37) 
0.0

>  <BSK_4H_Eotaxin3_down>  (37) 
0.0

>  <BSK_4H_Eotaxin3_up>  (37) 
0.0

>  <BSK_4H_MCP1_down>  (37) 
0.0

>  <BSK_4H_MCP1_up>  (37) 
0.0

>  <BSK_4H_Pselectin_down>  (37) 
0.0

>  <BSK_4H_Pselectin_up>  (37) 
0.0

>  <BSK_4H_SRB_down>  (37) 
0.0

>  <BSK_4H_SRB_up>  (37) 
0.0

>  <BSK_4H_VCAM1_down>  (37) 
0.0

>  <BSK_4H_VCAM1_up>  (37) 
0.0

>  <BSK_4H_VEGFRII_down>  (37) 
0.0

>  <BSK_4H_VEGFRII_up>  (37) 
0.0

>  <BSK_4H_uPAR_down>  (37) 
0.0

>  <BSK_4H_uPAR_up>  (37) 
0.0

>  <BSK_BE3C_HLADR_down>  (37) 
0.0

>  <BSK_BE3C_HLADR_up>  (37) 
0.0

>  <BSK_BE3C_IL1a_down>  (37) 
0.0

>  <BSK_BE3C_IL1a_up>  (37) 
0.0

>  <BSK_BE3C_IP10_down>  (37) 
0.0

>  <BSK_BE3C_IP10_up>  (37) 
0.0

>  <BSK_BE3C_MIG_down>  (37) 
0.0

>  <BSK_BE3C_MIG_up>  (37) 
0.0

>  <BSK_BE3C_MMP1_down>  (37) 
0.0

>  <BSK_BE3C_MMP1_up>  (37) 
0.0

>  <BSK_BE3C_PAI1_down>  (37) 
0.0

>  <BSK_BE3C_PAI1_up>  (37) 
0.0

>  <BSK_BE3C_SRB_down>  (37) 
0.0

>  <BSK_BE3C_SRB_up>  (37) 
0.0

>  <BSK_BE3C_TGFb1_down>  (37) 
0.0

>  <BSK_BE3C_TGFb1_up>  (37) 
0.0

>  <BSK_BE3C_tPA_down>  (37) 
0.0

>  <BSK_BE3C_tPA_up>  (37) 
0.0

>  <BSK_BE3C_uPAR_down>  (37) 
0.0

>  <BSK_BE3C_uPAR_up>  (37) 
0.0

>  <BSK_BE3C_uPA_down>  (37) 
0.0

>  <BSK_BE3C_uPA_up>  (37) 
0.0

>  <BSK_CASM3C_HLADR_down>  (37) 
0.0

>  <BSK_CASM3C_HLADR_up>  (37) 
0.0

>  <BSK_CASM3C_IL6_down>  (37) 
0.0

>  <BSK_CASM3C_IL6_up>  (37) 
0.0

>  <BSK_CASM3C_IL8_down>  (37) 
0.0

>  <BSK_CASM3C_IL8_up>  (37) 
0.0

>  <BSK_CASM3C_LDLR_down>  (37) 
0.0

>  <BSK_CASM3C_LDLR_up>  (37) 
0.0

>  <BSK_CASM3C_MCP1_down>  (37) 
0.0

>  <BSK_CASM3C_MCP1_up>  (37) 
0.0

>  <BSK_CASM3C_MCSF_down>  (37) 
1.0

>  <BSK_CASM3C_MCSF_up>  (37) 
0.0

>  <BSK_CASM3C_MIG_down>  (37) 
0.0

>  <BSK_CASM3C_MIG_up>  (37) 
0.0

>  <BSK_CASM3C_Proliferation_down>  (37) 
0.0

>  <BSK_CASM3C_Proliferation_up>  (37) 
0.0

>  <BSK_CASM3C_SAA_down>  (37) 
0.0

>  <BSK_CASM3C_SAA_up>  (37) 
0.0

>  <BSK_CASM3C_SRB_down>  (37) 
0.0

>  <BSK_CASM3C_SRB_up>  (37) 
0.0

>  <BSK_CASM3C_Thrombomodulin_down>  (37) 
0.0

>  <BSK_CASM3C_Thrombomodulin_up>  (37) 
0.0

>  <BSK_CASM3C_TissueFactor_down>  (37) 
0.0

>  <BSK_CASM3C_TissueFactor_up>  (37) 
0.0

>  <BSK_CASM3C_VCAM1_down>  (37) 
0.0

>  <BSK_CASM3C_VCAM1_up>  (37) 
0.0

>  <BSK_CASM3C_uPAR_down>  (37) 
1.0

>  <BSK_CASM3C_uPAR_up>  (37) 
0.0

>  <BSK_KF3CT_ICAM1_down>  (37) 
0.0

>  <BSK_KF3CT_ICAM1_up>  (37) 
0.0

>  <BSK_KF3CT_IL1a_down>  (37) 
0.0

>  <BSK_KF3CT_IL1a_up>  (37) 
0.0

>  <BSK_KF3CT_IP10_down>  (37) 
0.0

>  <BSK_KF3CT_IP10_up>  (37) 
1.0

>  <BSK_KF3CT_MCP1_down>  (37) 
0.0

>  <BSK_KF3CT_MCP1_up>  (37) 
0.0

>  <BSK_KF3CT_MMP9_down>  (37) 
0.0

>  <BSK_KF3CT_MMP9_up>  (37) 
0.0

>  <BSK_KF3CT_SRB_down>  (37) 
0.0

>  <BSK_KF3CT_SRB_up>  (37) 
0.0

>  <BSK_KF3CT_TGFb1_down>  (37) 
0.0

>  <BSK_KF3CT_TGFb1_up>  (37) 
0.0

>  <BSK_KF3CT_TIMP2_down>  (37) 
0.0

>  <BSK_KF3CT_TIMP2_up>  (37) 
0.0

>  <BSK_KF3CT_uPA_down>  (37) 
0.0

>  <BSK_KF3CT_uPA_up>  (37) 
0.0

>  <BSK_LPS_CD40_down>  (37) 
0.0

>  <BSK_LPS_CD40_up>  (37) 
0.0

>  <BSK_LPS_Eselectin_down>  (37) 
0.0

>  <BSK_LPS_Eselectin_up>  (37) 
0.0

>  <BSK_LPS_IL1a_down>  (37) 
1.0

>  <BSK_LPS_IL1a_up>  (37) 
0.0

>  <BSK_LPS_IL8_down>  (37) 
0.0

>  <BSK_LPS_IL8_up>  (37) 
0.0

>  <BSK_LPS_MCP1_down>  (37) 
0.0

>  <BSK_LPS_MCP1_up>  (37) 
0.0

>  <BSK_LPS_MCSF_down>  (37) 
0.0

>  <BSK_LPS_MCSF_up>  (37) 
0.0

>  <BSK_LPS_PGE2_down>  (37) 
0.0

>  <BSK_LPS_PGE2_up>  (37) 
0.0

>  <BSK_LPS_SRB_down>  (37) 
0.0

>  <BSK_LPS_SRB_up>  (37) 
0.0

>  <BSK_LPS_TNFa_down>  (37) 
1.0

>  <BSK_LPS_TNFa_up>  (37) 
0.0

>  <BSK_LPS_TissueFactor_down>  (37) 
0.0

>  <BSK_LPS_TissueFactor_up>  (37) 
0.0

>  <BSK_LPS_VCAM1_down>  (37) 
0.0

>  <BSK_LPS_VCAM1_up>  (37) 
0.0

>  <BSK_SAg_CD38_down>  (37) 
0.0

>  <BSK_SAg_CD38_up>  (37) 
0.0

>  <BSK_SAg_CD40_down>  (37) 
0.0

>  <BSK_SAg_CD40_up>  (37) 
0.0

>  <BSK_SAg_CD69_down>  (37) 
0.0

>  <BSK_SAg_CD69_up>  (37) 
0.0

>  <BSK_SAg_Eselectin_down>  (37) 
1.0

>  <BSK_SAg_Eselectin_up>  (37) 
0.0

>  <BSK_SAg_IL8_down>  (37) 
0.0

>  <BSK_SAg_IL8_up>  (37) 
0.0

>  <BSK_SAg_MCP1_down>  (37) 
0.0

>  <BSK_SAg_MCP1_up>  (37) 
0.0

>  <BSK_SAg_MIG_down>  (37) 
0.0

>  <BSK_SAg_MIG_up>  (37) 
0.0

>  <BSK_SAg_PBMCCytotoxicity_down>  (37) 
0.0

>  <BSK_SAg_PBMCCytotoxicity_up>  (37) 
0.0

>  <BSK_SAg_Proliferation_down>  (37) 
0.0

>  <BSK_SAg_Proliferation_up>  (37) 
0.0

>  <BSK_SAg_SRB_down>  (37) 
0.0

>  <BSK_SAg_SRB_up>  (37) 
0.0

>  <BSK_hDFCGF_CollagenIII_down>  (37) 
0.0

>  <BSK_hDFCGF_CollagenIII_up>  (37) 
0.0

>  <BSK_hDFCGF_EGFR_down>  (37) 
0.0

>  <BSK_hDFCGF_EGFR_up>  (37) 
0.0

>  <BSK_hDFCGF_IL8_down>  (37) 
0.0

>  <BSK_hDFCGF_IL8_up>  (37) 
0.0

>  <BSK_hDFCGF_IP10_down>  (37) 
0.0

>  <BSK_hDFCGF_IP10_up>  (37) 
0.0

>  <BSK_hDFCGF_MCSF_down>  (37) 
0.0

>  <BSK_hDFCGF_MCSF_up>  (37) 
0.0

>  <BSK_hDFCGF_MIG_down>  (37) 
0.0

>  <BSK_hDFCGF_MIG_up>  (37) 
0.0

>  <BSK_hDFCGF_MMP1_down>  (37) 
0.0

>  <BSK_hDFCGF_MMP1_up>  (37) 
0.0

>  <BSK_hDFCGF_PAI1_down>  (37) 
0.0

>  <BSK_hDFCGF_PAI1_up>  (37) 
0.0

>  <BSK_hDFCGF_Proliferation_down>  (37) 
0.0

>  <BSK_hDFCGF_Proliferation_up>  (37) 
0.0

>  <BSK_hDFCGF_SRB_down>  (37) 
0.0

>  <BSK_hDFCGF_SRB_up>  (37) 
0.0

>  <BSK_hDFCGF_TIMP1_down>  (37) 
0.0

>  <BSK_hDFCGF_TIMP1_up>  (37) 
0.0

>  <BSK_hDFCGF_VCAM1_down>  (37) 
0.0

>  <BSK_hDFCGF_VCAM1_up>  (37) 
0.0

>  <CEETOX_H295R_11DCORT_dn>  (37) 
0.0

>  <CEETOX_H295R_11DCORT_up>  (37) 
0.0

>  <CEETOX_H295R_ANDR_dn>  (37) 
0.0

>  <CEETOX_H295R_ANDR_up>  (37) 
0.0

>  <CEETOX_H295R_CORTIC_dn>  (37) 
0.0

>  <CEETOX_H295R_CORTIC_up>  (37) 
0.0

>  <CEETOX_H295R_CORTISOL_dn>  (37) 
0.0

>  <CEETOX_H295R_CORTISOL_up>  (37) 
0.0

>  <CEETOX_H295R_DOC_dn>  (37) 
0.0

>  <CEETOX_H295R_DOC_up>  (37) 
0.0

>  <CEETOX_H295R_ESTRADIOL_dn>  (37) 
0.0

>  <CEETOX_H295R_ESTRADIOL_up>  (37) 
0.0

>  <CEETOX_H295R_ESTRONE_dn>  (37) 
0.0

>  <CEETOX_H295R_ESTRONE_up>  (37) 
1.0

>  <CEETOX_H295R_MTT_cell_viability_dn>  (37) 
0.0

>  <CEETOX_H295R_MTT_cell_viability_up>  (37) 
0.0

>  <CEETOX_H295R_OHPREG_dn>  (37) 
0.0

>  <CEETOX_H295R_OHPREG_up>  (37) 
0.0

>  <CEETOX_H295R_OHPROG_dn>  (37) 
0.0

>  <CEETOX_H295R_OHPROG_up>  (37) 
0.0

>  <CEETOX_H295R_PROG_dn>  (37) 
0.0

>  <CEETOX_H295R_PROG_up>  (37) 
0.0

>  <CEETOX_H295R_TESTO_dn>  (37) 
0.0

>  <CEETOX_H295R_TESTO_up>  (37) 
0.0

>  <CLD_ABCB11_24hr>  (37) 
0.0

>  <CLD_ABCB11_48hr>  (37) 
0.0

>  <CLD_ABCB11_6hr>  (37) 
0.0

>  <CLD_ABCB1_24hr>  (37) 
0.0

>  <CLD_ABCB1_48hr>  (37) 
0.0

>  <CLD_ABCB1_6hr>  (37) 
0.0

>  <CLD_ABCG2_24hr>  (37) 
0.0

>  <CLD_ABCG2_48hr>  (37) 
0.0

>  <CLD_ABCG2_6hr>  (37) 
0.0

>  <CLD_ACTIN_24hr>  (37) 
0.0

>  <CLD_ACTIN_48hr>  (37) 
0.0

>  <CLD_ACTIN_6hr>  (37) 
0.0

>  <CLD_CYP1A1_24hr>  (37) 
1.0

>  <CLD_CYP1A1_48hr>  (37) 
0.0

>  <CLD_CYP1A1_6hr>  (37) 
1.0

>  <CLD_CYP1A2_24hr>  (37) 
1.0

>  <CLD_CYP1A2_48hr>  (37) 
1.0

>  <CLD_CYP1A2_6hr>  (37) 
1.0

>  <CLD_CYP2B6_24hr>  (37) 
1.0

>  <CLD_CYP2B6_48hr>  (37) 
1.0

>  <CLD_CYP2B6_6hr>  (37) 
1.0

>  <CLD_CYP2C19_24hr>  (37) 
0.0

>  <CLD_CYP2C19_48hr>  (37) 
0.0

>  <CLD_CYP2C19_6hr>  (37) 
0.0

>  <CLD_CYP2C9_24hr>  (37) 
0.0

>  <CLD_CYP2C9_48hr>  (37) 
0.0

>  <CLD_CYP2C9_6hr>  (37) 
0.0

>  <CLD_CYP3A4_24hr>  (37) 
1.0

>  <CLD_CYP3A4_48hr>  (37) 
1.0

>  <CLD_CYP3A4_6hr>  (37) 
0.0

>  <CLD_GAPDH_24hr>  (37) 
0.0

>  <CLD_GAPDH_48hr>  (37) 
0.0

>  <CLD_GAPDH_6hr>  (37) 
0.0

>  <CLD_GSTA2_24hr>  (37) 
0.0

>  <CLD_GSTA2_48hr>  (37) 
0.0

>  <CLD_GSTA2_6hr>  (37) 
0.0

>  <CLD_HMGCS2_24hr>  (37) 
0.0

>  <CLD_HMGCS2_48hr>  (37) 
0.0

>  <CLD_HMGCS2_6hr>  (37) 
0.0

>  <CLD_SLCO1B1_24hr>  (37) 
0.0

>  <CLD_SLCO1B1_48hr>  (37) 
0.0

>  <CLD_SLCO1B1_6hr>  (37) 
0.0

>  <CLD_SULT2A_24hr>  (37) 
0.0

>  <CLD_SULT2A_48hr>  (37) 
0.0

>  <CLD_SULT2A_6hr>  (37) 
0.0

>  <CLD_UGT1A1_24hr>  (37) 
1.0

>  <CLD_UGT1A1_48hr>  (37) 
1.0

>  <CLD_UGT1A1_6hr>  (37) 
0.0

>  <NHEERL_MHC_CellCount_dn>  (37) 
0.0

>  <NHEERL_MHC_CellCount_up>  (37) 
0.0

>  <NHEERL_MHC_MHCvCellCount_dn>  (37) 
0.0

>  <NHEERL_MHC_MHCvCellCount_up>  (37) 
0.0

>  <NHEERL_ZF_144hpf_TERATOSCORE_up>  (37) 
0.0

>  <NVS_ADME_hCYP19A1>  (37) 
0.0

>  <NVS_ADME_hCYP19A1_Activator>  (37) 
0.0

>  <NVS_ADME_hCYP1A1>  (37) 
0.0

>  <NVS_ADME_hCYP1A1_Activator>  (37) 
0.0

>  <NVS_ADME_hCYP1A2>  (37) 
1.0

>  <NVS_ADME_hCYP1A2_Activator>  (37) 
0.0

>  <NVS_ADME_hCYP2C19>  (37) 
1.0

>  <NVS_ADME_hCYP2C19_Activator>  (37) 
0.0

>  <NVS_ADME_rCYP2A2>  (37) 
0.0

>  <NVS_ADME_rCYP2A2_Activator>  (37) 
0.0

>  <NVS_ADME_rCYP2B1>  (37) 
0.0

>  <NVS_ADME_rCYP2B1_Activator>  (37) 
0.0

>  <NVS_ENZ_hCDK2>  (37) 
0.0

>  <NVS_ENZ_hCDK2_Activator>  (37) 
0.0

>  <NVS_ENZ_hCK1D>  (37) 
0.0

>  <NVS_ENZ_hCK1D_Activator>  (37) 
0.0

>  <NVS_ENZ_hEphB2>  (37) 
0.0

>  <NVS_ENZ_hEphB2_Activator>  (37) 
0.0

>  <NVS_ENZ_hPDE4A1>  (37) 
1.0

>  <NVS_ENZ_hPDE4A1_Activator>  (37) 
0.0

>  <NVS_ENZ_hPDE5>  (37) 
1.0

>  <NVS_ENZ_hPDE5_Activator>  (37) 
0.0

>  <NVS_ENZ_hPTPRB>  (37) 
0.0

>  <NVS_ENZ_hPTPRB_Activator>  (37) 
0.0

>  <NVS_ENZ_hSyk>  (37) 
0.0

>  <NVS_ENZ_hSyk_Activator>  (37) 
0.0

>  <NVS_ENZ_hVEGFR3>  (37) 
0.0

>  <NVS_ENZ_hVEGFR3_Activator>  (37) 
0.0

>  <NVS_ENZ_oCOX2>  (37) 
1.0

>  <NVS_ENZ_oCOX2_Activator>  (37) 
0.0

>  <NVS_ENZ_pMTHFR>  (37) 
0.0

>  <NVS_ENZ_pMTHFR_Activator>  (37) 
0.0

>  <NVS_ENZ_rMAOAC>  (37) 
1.0

>  <NVS_ENZ_rMAOAC_Activator>  (37) 
0.0

>  <NVS_GPCR_bAdoR_NonSelective>  (37) 
1.0

>  <NVS_GPCR_bH1>  (37) 
0.0

>  <NVS_GPCR_gLTD4>  (37) 
0.0

>  <NVS_GPCR_h5HT5A>  (37) 
0.0

>  <NVS_GPCR_hAT1>  (37) 
0.0

>  <NVS_GPCR_hAdoRA1>  (37) 
1.0

>  <NVS_GPCR_hAdoRA2a>  (37) 
1.0

>  <NVS_GPCR_hH1>  (37) 
1.0

>  <NVS_GPCR_hNTS>  (37) 
0.0

>  <NVS_GPCR_rCRF>  (37) 
0.0

>  <NVS_GPCR_rNTS>  (37) 
0.0

>  <NVS_LGIC_bGABAR_Agonist>  (37) 
0.0

>  <NVS_MP_hPBR>  (37) 
0.0

>  <NVS_MP_rPBR>  (37) 
0.0

>  <NVS_NR_bPR>  (37) 
0.0

>  <NVS_NR_hCAR_Antagonist>  (37) 
0.0

>  <NVS_NR_hFXR_Antagonist>  (37) 
0.0

>  <NVS_NR_hPPARg>  (37) 
0.0

>  <NVS_NR_hRAR_Antagonist>  (37) 
0.0

>  <NVS_NR_hRARa_Agonist>  (37) 
0.0

>  <NVS_NR_hTRa_Antagonist>  (37) 
0.0

>  <OT_AR_ARSRC1_0480>  (37) 
0.0

>  <OT_AR_ARSRC1_0960>  (37) 
0.0

>  <OT_ER_ERaERa_0480>  (37) 
0.0

>  <OT_ER_ERaERa_1440>  (37) 
0.0

>  <OT_ER_ERaERb_0480>  (37) 
0.0

>  <OT_ER_ERbERb_0480>  (37) 
0.0

>  <OT_ER_ERbERb_1440>  (37) 
0.0

>  <OT_ERa_EREGFP_0480>  (37) 
0.0

>  <TOX21_AP1_BLA_Agonist_ch1>  (37) 
0.0

>  <TOX21_AP1_BLA_Agonist_ch2>  (37) 
0.0

>  <TOX21_AP1_BLA_Agonist_ratio>  (37) 
0.0

>  <TOX21_AP1_BLA_Agonist_viability>  (37) 
0.0

>  <TOX21_ARE_BLA_Agonist_ch1>  (37) 
0.0

>  <TOX21_ARE_BLA_Agonist_ch2>  (37) 
0.0

>  <TOX21_ARE_BLA_agonist_viability>  (37) 
0.0

>  <TOX21_AR_BLA_Agonist_ch1>  (37) 
0.0

>  <TOX21_AR_BLA_Agonist_ch2>  (37) 
0.0

>  <TOX21_AR_BLA_Agonist_ratio>  (37) 
0.0

>  <TOX21_AR_BLA_Antagonist_ch1>  (37) 
0.0

>  <TOX21_AR_BLA_Antagonist_ch2>  (37) 
0.0

>  <TOX21_AR_BLA_Antagonist_ratio>  (37) 
0.0

>  <TOX21_AR_BLA_Antagonist_viability>  (37) 
0.0

>  <TOX21_AR_LUC_MDAKB2_Agonist>  (37) 
0.0

>  <TOX21_AR_LUC_MDAKB2_Agonist_3uM_Nilutamide>  (37) 
0.0

>  <TOX21_AR_LUC_MDAKB2_Agonist_3uM_Nilutamide_viability>  (37) 
0.0

>  <TOX21_AR_LUC_MDAKB2_Antagonist_0.5nM_R1881>  (37) 
0.0

>  <TOX21_AR_LUC_MDAKB2_Antagonist_0.5nM_R1881_viability>  (37) 
0.0

>  <TOX21_AR_LUC_MDAKB2_Antagonist_10nM_R1881>  (37) 
0.0

>  <TOX21_AR_LUC_MDAKB2_Antagonist_10nM_R1881_viability>  (37) 
0.0

>  <TOX21_AhR_LUC_Agonist>  (37) 
0.0

>  <TOX21_Aromatase_Inhibition>  (37) 
0.0

>  <TOX21_Aromatase_Inhibition_viability>  (37) 
0.0

>  <TOX21_AutoFluor_HEK293_Cell_blue>  (37) 
0.0

>  <TOX21_AutoFluor_HEK293_Cell_green>  (37) 
0.0

>  <TOX21_AutoFluor_HEK293_Cell_red>  (37) 
0.0

>  <TOX21_AutoFluor_HEK293_Media_blue>  (37) 
0.0

>  <TOX21_AutoFluor_HEK293_Media_green>  (37) 
0.0

>  <TOX21_AutoFluor_HEK293_Media_red>  (37) 
0.0

>  <TOX21_AutoFluor_HEPG2_Cell_blue>  (37) 
0.0

>  <TOX21_AutoFluor_HEPG2_Cell_green>  (37) 
0.0

>  <TOX21_AutoFluor_HEPG2_Cell_red>  (37) 
0.0

>  <TOX21_AutoFluor_HEPG2_Media_blue>  (37) 
0.0

>  <TOX21_AutoFluor_HEPG2_Media_green>  (37) 
0.0

>  <TOX21_AutoFluor_HEPG2_Media_red>  (37) 
0.0

>  <TOX21_CAR_Agonist>  (37) 
0.0

>  <TOX21_CAR_Antagonist>  (37) 
0.0

>  <TOX21_CAR_Antagonist_viability>  (37) 
0.0

>  <TOX21_CASP3_CHO>  (37) 
0.0

>  <TOX21_CASP3_CHO_viability>  (37) 
0.0

>  <TOX21_CASP3_HEPG2>  (37) 
0.0

>  <TOX21_CASP3_HEPG2_viability>  (37) 
0.0

>  <TOX21_DT40>  (37) 
0.0

>  <TOX21_DT40_100>  (37) 
1.0

>  <TOX21_DT40_657>  (37) 
0.0

>  <TOX21_ELG1_LUC_Agonist>  (37) 
0.0

>  <TOX21_ELG1_LUC_Agonist_viability>  (37) 
0.0

>  <TOX21_ERR_Agonist>  (37) 
0.0

>  <TOX21_ERR_Antagonist>  (37) 
0.0

>  <TOX21_ERa_BLA_Agonist_ch1>  (37) 
0.0

>  <TOX21_ERa_BLA_Agonist_ch2>  (37) 
0.0

>  <TOX21_ERa_BLA_Agonist_ratio>  (37) 
0.0

>  <TOX21_ERa_BLA_Antagonist_ch1>  (37) 
0.0

>  <TOX21_ERa_BLA_Antagonist_ch2>  (37) 
0.0

>  <TOX21_ERa_BLA_Antagonist_ratio>  (37) 
0.0

>  <TOX21_ERa_BLA_Antagonist_viability>  (37) 
0.0

>  <TOX21_ERa_LUC_VM7_Agonist>  (37) 
0.0

>  <TOX21_ERa_LUC_VM7_Agonist_10nM_ICI182780>  (37) 
0.0

>  <TOX21_ERa_LUC_VM7_Agonist_10nM_ICI182780_viability>  (37) 
0.0

>  <TOX21_ERa_LUC_VM7_Antagonist_0.1nM_E2>  (37) 
0.0

>  <TOX21_ERa_LUC_VM7_Antagonist_0.1nM_E2_viability>  (37) 
0.0

>  <TOX21_ERa_LUC_VM7_Antagonist_0.5nM_E2>  (37) 
0.0

>  <TOX21_ERa_LUC_VM7_Antagonist_0.5nM_E2_viability>  (37) 
0.0

>  <TOX21_ERb_BLA_Agonist_ch1>  (37) 
0.0

>  <TOX21_ERb_BLA_Agonist_ch2>  (37) 
0.0

>  <TOX21_ERb_BLA_Agonist_ratio>  (37) 
0.0

>  <TOX21_ERb_BLA_Agonist_viability>  (37) 
0.0

>  <TOX21_ERb_BLA_Antagonist_ch1>  (37) 
0.0

>  <TOX21_ERb_BLA_Antagonist_ch2>  (37) 
0.0

>  <TOX21_ERb_BLA_Antagonist_ratio>  (37) 
0.0

>  <TOX21_ERb_BLA_Antagonist_viability>  (37) 
0.0

>  <TOX21_ESRE_BLA_ch1>  (37) 
0.0

>  <TOX21_ESRE_BLA_ch2>  (37) 
0.0

>  <TOX21_ESRE_BLA_ratio>  (37) 
0.0

>  <TOX21_ESRE_BLA_viability>  (37) 
0.0

>  <TOX21_FXR_BLA_Antagonist_ch1>  (37) 
0.0

>  <TOX21_FXR_BLA_Antagonist_ch2>  (37) 
0.0

>  <TOX21_FXR_BLA_agonist_ch1>  (37) 
0.0

>  <TOX21_FXR_BLA_agonist_ch2>  (37) 
0.0

>  <TOX21_FXR_BLA_agonist_ratio>  (37) 
0.0

>  <TOX21_FXR_BLA_agonist_viability>  (37) 
0.0

>  <TOX21_FXR_BLA_antagonist_ratio>  (37) 
0.0

>  <TOX21_FXR_BLA_antagonist_viability>  (37) 
0.0

>  <TOX21_GR_BLA_Agonist_ch1>  (37) 
0.0

>  <TOX21_GR_BLA_Agonist_ch2>  (37) 
0.0

>  <TOX21_GR_BLA_Agonist_ratio>  (37) 
0.0

>  <TOX21_GR_BLA_Antagonist_ch1>  (37) 
0.0

>  <TOX21_GR_BLA_Antagonist_ch2>  (37) 
0.0

>  <TOX21_GR_BLA_Antagonist_ratio>  (37) 
0.0

>  <TOX21_GR_BLA_Antagonist_viability>  (37) 
0.0

>  <TOX21_H2AX_HTRF_CHO_Agonist_ch1>  (37) 
0.0

>  <TOX21_H2AX_HTRF_CHO_Agonist_ch2>  (37) 
0.0

>  <TOX21_H2AX_HTRF_CHO_Agonist_ratio>  (37) 
0.0

>  <TOX21_H2AX_HTRF_CHO_viability>  (37) 
0.0

>  <TOX21_HDAC_Inhibition>  (37) 
0.0

>  <TOX21_HDAC_Inhibition_viability>  (37) 
0.0

>  <TOX21_HRE_BLA_Agonist_ch1>  (37) 
0.0

>  <TOX21_HRE_BLA_Agonist_ch2>  (37) 
0.0

>  <TOX21_HRE_BLA_Agonist_ratio>  (37) 
0.0

>  <TOX21_HRE_BLA_Agonist_viability>  (37) 
0.0

>  <TOX21_HSE_BLA_agonist_ch1>  (37) 
0.0

>  <TOX21_HSE_BLA_agonist_ch2>  (37) 
0.0

>  <TOX21_HSE_BLA_agonist_ratio>  (37) 
0.0

>  <TOX21_HSE_BLA_agonist_viability>  (37) 
0.0

>  <TOX21_LUC_Biochem>  (37) 
0.0

>  <TOX21_MMP_fitc>  (37) 
0.0

>  <TOX21_MMP_ratio_down>  (37) 
0.0

>  <TOX21_MMP_ratio_up>  (37) 
0.0

>  <TOX21_MMP_rhodamine>  (37) 
0.0

>  <TOX21_MMP_viability>  (37) 
0.0

>  <TOX21_NFkB_BLA_agonist_ch1>  (37) 
0.0

>  <TOX21_NFkB_BLA_agonist_ch2>  (37) 
0.0

>  <TOX21_NFkB_BLA_agonist_ratio>  (37) 
0.0

>  <TOX21_NFkB_BLA_agonist_viability>  (37) 
0.0

>  <TOX21_PGC_ERR_Agonist>  (37) 
0.0

>  <TOX21_PGC_ERR_Antagonist>  (37) 
0.0

>  <TOX21_PGC_ERR_viability>  (37) 
0.0

>  <TOX21_PPARd_BLA_Agonist_viability>  (37) 
0.0

>  <TOX21_PPARd_BLA_Antagonist_ch1>  (37) 
0.0

>  <TOX21_PPARd_BLA_Antagonist_ch2>  (37) 
0.0

>  <TOX21_PPARd_BLA_agonist_ch1>  (37) 
0.0

>  <TOX21_PPARd_BLA_agonist_ch2>  (37) 
0.0

>  <TOX21_PPARd_BLA_agonist_ratio>  (37) 
0.0

>  <TOX21_PPARd_BLA_antagonist_ratio>  (37) 
0.0

>  <TOX21_PPARd_BLA_antagonist_viability>  (37) 
0.0

>  <TOX21_PPARg_BLA_Agonist_ch1>  (37) 
0.0

>  <TOX21_PPARg_BLA_Agonist_ch2>  (37) 
0.0

>  <TOX21_PPARg_BLA_Agonist_ratio>  (37) 
0.0

>  <TOX21_PPARg_BLA_Antagonist_ch1>  (37) 
0.0

>  <TOX21_PPARg_BLA_Antagonist_ch2>  (37) 
0.0

>  <TOX21_PPARg_BLA_antagonist_ratio>  (37) 
0.0

>  <TOX21_PPARg_BLA_antagonist_viability>  (37) 
0.0

>  <TOX21_PR_BLA_Agonist_ch1>  (37) 
0.0

>  <TOX21_PR_BLA_Agonist_ch2>  (37) 
0.0

>  <TOX21_PR_BLA_Agonist_ratio>  (37) 
0.0

>  <TOX21_PR_BLA_Antagonist_ch1>  (37) 
0.0

>  <TOX21_PR_BLA_Antagonist_ch2>  (37) 
0.0

>  <TOX21_PR_BLA_Antagonist_ratio>  (37) 
0.0

>  <TOX21_PR_BLA_Antagonist_viability>  (37) 
0.0

>  <TOX21_PXR_Agonist>  (37) 
0.0

>  <TOX21_PXR_viability>  (37) 
0.0

>  <TOX21_RAR_LUC_Agonist>  (37) 
0.0

>  <TOX21_RAR_LUC_Agonist_viability>  (37) 
0.0

>  <TOX21_RAR_LUC_Antagonist_viability>  (37) 
0.0

>  <TOX21_RORg_LUC_CHO_Antagonist>  (37) 
0.0

>  <TOX21_RORg_LUC_CHO_Antagonist_viability>  (37) 
0.0

>  <TOX21_RT_HEK293_FLO_00hr_viability>  (37) 
0.0

>  <TOX21_RT_HEK293_FLO_08hr_viability>  (37) 
0.0

>  <TOX21_RT_HEK293_FLO_16hr_viability>  (37) 
1.0

>  <TOX21_RT_HEK293_FLO_24hr_viability>  (37) 
1.0

>  <TOX21_RT_HEK293_FLO_32hr_viability>  (37) 
1.0

>  <TOX21_RT_HEK293_FLO_40hr_viability>  (37) 
1.0

>  <TOX21_RT_HEK293_GLO_00hr_viability>  (37) 
0.0

>  <TOX21_RT_HEK293_GLO_08hr_viability>  (37) 
0.0

>  <TOX21_RT_HEK293_GLO_16hr_viability>  (37) 
0.0

>  <TOX21_RT_HEK293_GLO_24hr_viability>  (37) 
0.0

>  <TOX21_RT_HEK293_GLO_32hr_viability>  (37) 
0.0

>  <TOX21_RT_HEK293_GLO_40hr_viability>  (37) 
0.0

>  <TOX21_RT_HEPG2_FLO_00hr_ctrl_viability>  (37) 
0.0

>  <TOX21_RT_HEPG2_FLO_08hr_viability>  (37) 
0.0

>  <TOX21_RT_HEPG2_FLO_16hr_ctrl_viability>  (37) 
0.0

>  <TOX21_RT_HEPG2_FLO_24hr_viability>  (37) 
0.0

>  <TOX21_RT_HEPG2_FLO_32hr_ctrl_viability>  (37) 
0.0

>  <TOX21_RT_HEPG2_GLO_00hr_ctrl_viability>  (37) 
0.0

>  <TOX21_RT_HEPG2_GLO_08hr_ctrl_viability>  (37) 
0.0

>  <TOX21_RT_HEPG2_GLO_16hr_ctrl_viability>  (37) 
0.0

>  <TOX21_RT_HEPG2_GLO_24hr_ctrl_viability>  (37) 
0.0

>  <TOX21_RT_HEPG2_GLO_32hr_ctrl_viability>  (37) 
0.0

>  <TOX21_RT_HEPG2_GLO_40hr_viability>  (37) 
0.0

>  <TOX21_RXR_BLA_Agonist_ch1>  (37) 
0.0

>  <TOX21_RXR_BLA_Agonist_ch2>  (37) 
0.0

>  <TOX21_RXR_BLA_Agonist_ratio>  (37) 
0.0

>  <TOX21_RXR_BLA_Agonist_viability>  (37) 
0.0

>  <TOX21_SBE_BLA_Agonist_ch1>  (37) 
0.0

>  <TOX21_SBE_BLA_Agonist_ch2>  (37) 
0.0

>  <TOX21_SBE_BLA_Agonist_ratio>  (37) 
0.0

>  <TOX21_SBE_BLA_Agonist_viability>  (37) 
0.0

>  <TOX21_SBE_BLA_Antagonist_ch1>  (37) 
0.0

>  <TOX21_SBE_BLA_Antagonist_ch2>  (37) 
0.0

>  <TOX21_SBE_BLA_Antagonist_ratio>  (37) 
0.0

>  <TOX21_SBE_BLA_Antagonist_viability>  (37) 
0.0

>  <TOX21_SSH_3T3_GLI3_Agonist>  (37) 
0.0

>  <TOX21_SSH_3T3_GLI3_Agonist_viability>  (37) 
0.0

>  <TOX21_SSH_3T3_GLI3_Antagonist>  (37) 
1.0

>  <TOX21_SSH_3T3_GLI3_Antagonist_viability>  (37) 
0.0

>  <TOX21_TRHR_HEK293_Agonist>  (37) 
0.0

>  <TOX21_TRHR_HEK293_Antagonist>  (37) 
0.0

>  <TOX21_TR_LUC_GH3_Agonist>  (37) 
0.0

>  <TOX21_TR_LUC_GH3_Antagonist>  (37) 
0.0

>  <TOX21_TR_LUC_GH3_Antagonist_viability>  (37) 
0.0

>  <TOX21_TSHR_Agonist_ch2>  (37) 
0.0

>  <TOX21_TSHR_Antagonist_ch2>  (37) 
0.0

>  <TOX21_TSHR_Antagonist_ratio>  (37) 
0.0

>  <TOX21_TSHR_HTRF_Agonist_ch1>  (37) 
0.0

>  <TOX21_TSHR_HTRF_Antagonist_ch1>  (37) 
0.0

>  <TOX21_TSHR_wt_HTRF_ch1>  (37) 
0.0

>  <TOX21_TSHR_wt_ch2>  (37) 
0.0

>  <TOX21_TSHR_wt_ratio>  (37) 
0.0

>  <TOX21_VDR_BLA_Agonist_viability>  (37) 
0.0

>  <TOX21_VDR_BLA_Antagonist_ch1>  (37) 
0.0

>  <TOX21_VDR_BLA_Antagonist_ch2>  (37) 
0.0

>  <TOX21_VDR_BLA_agonist_ch1>  (37) 
0.0

>  <TOX21_VDR_BLA_agonist_ch2>  (37) 
0.0

>  <TOX21_VDR_BLA_agonist_ratio>  (37) 
0.0

>  <TOX21_VDR_BLA_antagonist_ratio>  (37) 
0.0

>  <TOX21_VDR_BLA_antagonist_viability>  (37) 
0.0

>  <TOX21_p53_BLA_p1_ch1>  (37) 
0.0

>  <TOX21_p53_BLA_p1_ch2>  (37) 
0.0

>  <TOX21_p53_BLA_p1_ratio>  (37) 
0.0

>  <TOX21_p53_BLA_p1_viability>  (37) 
0.0

>  <TOX21_p53_BLA_p2_ch1>  (37) 
0.0

>  <TOX21_p53_BLA_p2_ch2>  (37) 
0.0

>  <TOX21_p53_BLA_p2_ratio>  (37) 
0.0

>  <TOX21_p53_BLA_p2_viability>  (37) 
0.0

>  <TOX21_p53_BLA_p3_ch1>  (37) 
0.0

>  <TOX21_p53_BLA_p3_ch2>  (37) 
0.0

>  <TOX21_p53_BLA_p3_ratio>  (37) 
0.0

>  <TOX21_p53_BLA_p4_ch1>  (37) 
0.0

>  <TOX21_p53_BLA_p4_ch2>  (37) 
0.0

>  <TOX21_p53_BLA_p4_ratio>  (37) 
0.0

>  <TOX21_p53_BLA_p4_viability>  (37) 
0.0

>  <TOX21_p53_BLA_p5_ch1>  (37) 
0.0

>  <TOX21_p53_BLA_p5_ch2>  (37) 
0.0

>  <TOX21_p53_BLA_p5_ratio>  (37) 
0.0

>  <TOX21_p53_BLA_p5_viability>  (37) 
0.0

>  <Tanguay_ZF_120hpf_AXIS_up>  (37) 
0.0

>  <Tanguay_ZF_120hpf_ActivityScore>  (37) 
0.0

>  <Tanguay_ZF_120hpf_BRAI_up>  (37) 
0.0

>  <Tanguay_ZF_120hpf_CFIN_up>  (37) 
0.0

>  <Tanguay_ZF_120hpf_CIRC_up>  (37) 
0.0

>  <Tanguay_ZF_120hpf_EYE_up>  (37) 
0.0

>  <Tanguay_ZF_120hpf_JAW_up>  (37) 
0.0

>  <Tanguay_ZF_120hpf_MORT_up>  (37) 
0.0

>  <Tanguay_ZF_120hpf_NC_up>  (37) 
0.0

>  <Tanguay_ZF_120hpf_OTIC_up>  (37) 
0.0

>  <Tanguay_ZF_120hpf_PE_up>  (37) 
0.0

>  <Tanguay_ZF_120hpf_PFIN_up>  (37) 
0.0

>  <Tanguay_ZF_120hpf_PIG_up>  (37) 
0.0

>  <Tanguay_ZF_120hpf_SNOU_up>  (37) 
0.0

>  <Tanguay_ZF_120hpf_SOMI_up>  (37) 
0.0

>  <Tanguay_ZF_120hpf_SWIM_up>  (37) 
0.0

>  <Tanguay_ZF_120hpf_TRUN_up>  (37) 
0.0

>  <Tanguay_ZF_120hpf_TR_up>  (37) 
0.0

>  <Tanguay_ZF_120hpf_YSE_up>  (37) 
0.0

>  <UPITT_HCI_U2OS_AR_TIF2_Nucleoli_Agonist>  (37) 
0.0

>  <UPITT_HCI_U2OS_AR_TIF2_Nucleoli_Antagonist>  (37) 
0.0

>  <UPITT_HCI_U2OS_AR_TIF2_Nucleoli_Cytoplasm_Ratio_Agonist>  (37) 
0.0

>  <UPITT_HCI_U2OS_AR_TIF2_Nucleoli_Cytoplasm_Ratio_Antagonist>  (37) 
0.0

>  <NVS_NR_mERa>  (37) 
0.0

$$$$

     RDKit          3D

  6  6  0  0  0  0  0  0  0  0999 V2000
    0.0000    0.0000    0.0000 C   0  0  0  0  0  0  0  0  0  0  0  0
    0.0000    0.0000    0.0000 N   0  0  0  0  0  0  0  0  0  0  0  0
    0.0000    0.0000    0.0000 N   0  0  0  0  0  0  0  0  0  0  0  0
    0.0000    0.0000    0.0000 C   0  0  0  0  0  0  0  0  0  0  0  0
    0.0000    0.0000    0.0000 N   0  0  0  0  0  0  0  0  0  0  0  0
    0.0000    0.0000    0.0000 N   0  0  0  0  0  0  0  0  0  0  0  0
  1  2  2  0
  2  3  1  0
  3  4  1  0
  4  5  2  0
  4  6  1  0
  5  1  1  0
M  END
>  <CASRN>  (38) 
61-82-5

>  <Name>  (38) 
Amitrole

>  <Active>  (38) 
0

>  <Inactive>  (38) 
2

>  <Bioactivity>  (38) 
Inactive

>  <Min LEL>  (38) 
nan

>  <Max HDT>  (38) 
1000.0

>  <Class>  (38) 
0

>  <Code>  (38) 
C61825

>  <OT_ER_ERaERb_1440>  (38) 
0.0

>  <OT_FXR_FXRSRC1_0480>  (38) 
0.0

>  <OT_PPARg_PPARgSRC1_1440>  (38) 
0.0

>  <OT_FXR_FXRSRC1_1440>  (38) 
0.0

>  <OT_NURR1_NURR1RXRa_0480>  (38) 
0.0

>  <OT_NURR1_NURR1RXRa_1440>  (38) 
0.0

>  <OT_PPARg_PPARgSRC1_0480>  (38) 
0.0

>  <OT_AR_ARELUC_AG_1440>  (38) 
0.0

>  <OT_ERa_EREGFP_0120>  (38) 
0.0

>  <ATG_CAR_TRANS_up>  (38) 
0.0

>  <ATG_E2F_CIS_dn>  (38) 
0.0

>  <ATG_EGR_CIS_up>  (38) 
0.0

>  <ATG_ERa_TRANS_dn>  (38) 
0.0

>  <ATG_ERa_TRANS_up>  (38) 
0.0

>  <ATG_FXR_TRANS_dn>  (38) 
0.0

>  <ATG_GLI_CIS_dn>  (38) 
0.0

>  <ATG_GRE_CIS_up>  (38) 
0.0

>  <ATG_LXRa_TRANS_dn>  (38) 
0.0

>  <ATG_LXRa_TRANS_up>  (38) 
0.0

>  <ATG_NRF1_CIS_up>  (38) 
0.0

>  <ATG_NURR1_TRANS_up>  (38) 
0.0

>  <ATG_Sox_CIS_dn>  (38) 
0.0

>  <ATG_Sox_CIS_up>  (38) 
0.0

>  <ATG_Sp1_CIS_up>  (38) 
0.0

>  <ATG_TGFb_CIS_up>  (38) 
0.0

>  <TOX21_ARE_BLA_agonist_ratio>  (38) 
0.0

>  <TOX21_RAR_LUC_Antagonist>  (38) 
0.0

>  <ATG_LXRb_TRANS_dn>  (38) 
0.0

>  <ATG_CAR_TRANS_dn>  (38) 
0.0

>  <ATG_BRE_CIS_dn>  (38) 
0.0

>  <ATG_E2F_CIS_up>  (38) 
0.0

>  <TOX21_TSHR_Agonist_ratio>  (38) 
0.0

>  <ACEA_ER_80hr>  (38) 
0.0

>  <TOX21_CAR_Agonist_viabillity>  (38) 
0.0

>  <TOX21_PR_BLA_Agonist_viability>  (38) 
0.0

>  <TOX21_RT_HEPG2_FLO_40hr_ctrl_viability>  (38) 
0.0

>  <TOX21_AhR_LUC_Agonist_viability>  (38) 
0.0

>  <TOX21_ERR_viability>  (38) 
0.0

>  <TOX21_p53_BLA_p3_viability>  (38) 
0.0

>  <NVS_NR_hER>  (38) 
0.0

>  <NVS_NR_cAR>  (38) 
1.0

>  <NVS_NR_hPR>  (38) 
0.0

>  <BSK_3C_HLADR_down>  (38) 
0.0

>  <BSK_3C_Vis_down>  (38) 
0.0

>  <BSK_3C_uPAR_down>  (38) 
0.0

>  <NVS_NR_rAR>  (38) 
0.0

>  <NVS_NR_hGR>  (38) 
0.0

>  <NVS_NR_hAR>  (38) 
0.0

>  <ACEA_AR_agonist_80hr>  (38) 
0.0

>  <ACEA_AR_agonist_AUC_viability>  (38) 
0.0

>  <ACEA_AR_antagonist_80hr>  (38) 
0.0

>  <ACEA_AR_antagonist_AUC_viability>  (38) 
0.0

>  <ACEA_ER_AUC_viability>  (38) 
0.0

>  <ATG_AP_1_CIS_dn>  (38) 
0.0

>  <ATG_AP_1_CIS_up>  (38) 
0.0

>  <ATG_AP_2_CIS_dn>  (38) 
0.0

>  <ATG_AP_2_CIS_up>  (38) 
0.0

>  <ATG_AR_TRANS_dn>  (38) 
0.0

>  <ATG_AR_TRANS_up>  (38) 
0.0

>  <ATG_Ahr_CIS_dn>  (38) 
0.0

>  <ATG_Ahr_CIS_up>  (38) 
0.0

>  <ATG_BRE_CIS_up>  (38) 
0.0

>  <ATG_CMV_CIS_dn>  (38) 
0.0

>  <ATG_CMV_CIS_up>  (38) 
0.0

>  <ATG_CRE_CIS_dn>  (38) 
0.0

>  <ATG_CRE_CIS_up>  (38) 
0.0

>  <ATG_C_EBP_CIS_dn>  (38) 
0.0

>  <ATG_C_EBP_CIS_up>  (38) 
0.0

>  <ATG_DR4_LXR_CIS_dn>  (38) 
0.0

>  <ATG_DR4_LXR_CIS_up>  (38) 
0.0

>  <ATG_DR5_CIS_dn>  (38) 
0.0

>  <ATG_DR5_CIS_up>  (38) 
0.0

>  <ATG_EGR_CIS_dn>  (38) 
0.0

>  <ATG_ERE_CIS_dn>  (38) 
0.0

>  <ATG_ERE_CIS_up>  (38) 
0.0

>  <ATG_ERRa_TRANS_dn>  (38) 
0.0

>  <ATG_ERRa_TRANS_up>  (38) 
0.0

>  <ATG_ERRg_TRANS_dn>  (38) 
0.0

>  <ATG_ERRg_TRANS_up>  (38) 
0.0

>  <ATG_E_Box_CIS_dn>  (38) 
0.0

>  <ATG_E_Box_CIS_up>  (38) 
0.0

>  <ATG_Ets_CIS_dn>  (38) 
0.0

>  <ATG_Ets_CIS_up>  (38) 
0.0

>  <ATG_FXR_TRANS_up>  (38) 
0.0

>  <ATG_FoxA2_CIS_dn>  (38) 
0.0

>  <ATG_FoxA2_CIS_up>  (38) 
0.0

>  <ATG_FoxO_CIS_dn>  (38) 
0.0

>  <ATG_FoxO_CIS_up>  (38) 
0.0

>  <ATG_GAL4_TRANS_dn>  (38) 
0.0

>  <ATG_GAL4_TRANS_up>  (38) 
0.0

>  <ATG_GATA_CIS_dn>  (38) 
0.0

>  <ATG_GATA_CIS_up>  (38) 
0.0

>  <ATG_GLI_CIS_up>  (38) 
0.0

>  <ATG_GRE_CIS_dn>  (38) 
0.0

>  <ATG_GR_TRANS_dn>  (38) 
0.0

>  <ATG_GR_TRANS_up>  (38) 
0.0

>  <ATG_HIF1a_CIS_dn>  (38) 
0.0

>  <ATG_HIF1a_CIS_up>  (38) 
0.0

>  <ATG_HNF4a_TRANS_dn>  (38) 
0.0

>  <ATG_HNF4a_TRANS_up>  (38) 
0.0

>  <ATG_HNF6_CIS_dn>  (38) 
0.0

>  <ATG_HNF6_CIS_up>  (38) 
0.0

>  <ATG_HSE_CIS_dn>  (38) 
0.0

>  <ATG_HSE_CIS_up>  (38) 
0.0

>  <ATG_IR1_CIS_dn>  (38) 
0.0

>  <ATG_IR1_CIS_up>  (38) 
0.0

>  <ATG_ISRE_CIS_dn>  (38) 
0.0

>  <ATG_ISRE_CIS_up>  (38) 
0.0

>  <ATG_LXRb_TRANS_up>  (38) 
0.0

>  <ATG_MRE_CIS_dn>  (38) 
0.0

>  <ATG_MRE_CIS_up>  (38) 
0.0

>  <ATG_M_06_CIS_dn>  (38) 
0.0

>  <ATG_M_06_CIS_up>  (38) 
0.0

>  <ATG_M_06_TRANS_dn>  (38) 
0.0

>  <ATG_M_06_TRANS_up>  (38) 
0.0

>  <ATG_M_19_CIS_dn>  (38) 
0.0

>  <ATG_M_19_CIS_up>  (38) 
0.0

>  <ATG_M_19_TRANS_dn>  (38) 
0.0

>  <ATG_M_19_TRANS_up>  (38) 
0.0

>  <ATG_M_32_CIS_dn>  (38) 
0.0

>  <ATG_M_32_CIS_up>  (38) 
0.0

>  <ATG_M_32_TRANS_dn>  (38) 
0.0

>  <ATG_M_32_TRANS_up>  (38) 
0.0

>  <ATG_M_61_CIS_dn>  (38) 
0.0

>  <ATG_M_61_CIS_up>  (38) 
0.0

>  <ATG_M_61_TRANS_dn>  (38) 
0.0

>  <ATG_M_61_TRANS_up>  (38) 
0.0

>  <ATG_Myb_CIS_dn>  (38) 
0.0

>  <ATG_Myb_CIS_up>  (38) 
0.0

>  <ATG_Myc_CIS_dn>  (38) 
0.0

>  <ATG_Myc_CIS_up>  (38) 
0.0

>  <ATG_NFI_CIS_dn>  (38) 
0.0

>  <ATG_NFI_CIS_up>  (38) 
0.0

>  <ATG_NF_kB_CIS_dn>  (38) 
0.0

>  <ATG_NF_kB_CIS_up>  (38) 
0.0

>  <ATG_NRF1_CIS_dn>  (38) 
0.0

>  <ATG_NRF2_ARE_CIS_dn>  (38) 
0.0

>  <ATG_NRF2_ARE_CIS_up>  (38) 
0.0

>  <ATG_NURR1_TRANS_dn>  (38) 
0.0

>  <ATG_Oct_MLP_CIS_dn>  (38) 
0.0

>  <ATG_Oct_MLP_CIS_up>  (38) 
0.0

>  <ATG_PBREM_CIS_dn>  (38) 
0.0

>  <ATG_PBREM_CIS_up>  (38) 
0.0

>  <ATG_PPARa_TRANS_dn>  (38) 
0.0

>  <ATG_PPARa_TRANS_up>  (38) 
0.0

>  <ATG_PPARd_TRANS_dn>  (38) 
0.0

>  <ATG_PPARd_TRANS_up>  (38) 
0.0

>  <ATG_PPARg_TRANS_dn>  (38) 
0.0

>  <ATG_PPARg_TRANS_up>  (38) 
0.0

>  <ATG_PPRE_CIS_dn>  (38) 
0.0

>  <ATG_PPRE_CIS_up>  (38) 
0.0

>  <ATG_PXRE_CIS_dn>  (38) 
0.0

>  <ATG_PXRE_CIS_up>  (38) 
0.0

>  <ATG_PXR_TRANS_dn>  (38) 
0.0

>  <ATG_PXR_TRANS_up>  (38) 
0.0

>  <ATG_Pax6_CIS_dn>  (38) 
0.0

>  <ATG_Pax6_CIS_up>  (38) 
0.0

>  <ATG_RARa_TRANS_dn>  (38) 
0.0

>  <ATG_RARa_TRANS_up>  (38) 
0.0

>  <ATG_RARb_TRANS_dn>  (38) 
0.0

>  <ATG_RARb_TRANS_up>  (38) 
0.0

>  <ATG_RARg_TRANS_dn>  (38) 
0.0

>  <ATG_RARg_TRANS_up>  (38) 
0.0

>  <ATG_RORE_CIS_dn>  (38) 
0.0

>  <ATG_RORE_CIS_up>  (38) 
0.0

>  <ATG_RORb_TRANS_dn>  (38) 
0.0

>  <ATG_RORb_TRANS_up>  (38) 
0.0

>  <ATG_RORg_TRANS_dn>  (38) 
0.0

>  <ATG_RORg_TRANS_up>  (38) 
0.0

>  <ATG_RXRa_TRANS_dn>  (38) 
0.0

>  <ATG_RXRa_TRANS_up>  (38) 
0.0

>  <ATG_RXRb_TRANS_dn>  (38) 
0.0

>  <ATG_RXRb_TRANS_up>  (38) 
0.0

>  <ATG_SREBP_CIS_dn>  (38) 
0.0

>  <ATG_SREBP_CIS_up>  (38) 
0.0

>  <ATG_STAT3_CIS_dn>  (38) 
0.0

>  <ATG_STAT3_CIS_up>  (38) 
0.0

>  <ATG_Sp1_CIS_dn>  (38) 
0.0

>  <ATG_TAL_CIS_dn>  (38) 
0.0

>  <ATG_TAL_CIS_up>  (38) 
0.0

>  <ATG_TA_CIS_dn>  (38) 
0.0

>  <ATG_TA_CIS_up>  (38) 
0.0

>  <ATG_TCF_b_cat_CIS_dn>  (38) 
0.0

>  <ATG_TCF_b_cat_CIS_up>  (38) 
0.0

>  <ATG_TGFb_CIS_dn>  (38) 
0.0

>  <ATG_THRa1_TRANS_dn>  (38) 
0.0

>  <ATG_THRa1_TRANS_up>  (38) 
0.0

>  <ATG_VDRE_CIS_dn>  (38) 
0.0

>  <ATG_VDRE_CIS_up>  (38) 
0.0

>  <ATG_VDR_TRANS_dn>  (38) 
0.0

>  <ATG_VDR_TRANS_up>  (38) 
0.0

>  <ATG_XTT_Cytotoxicity_up>  (38) 
0.0

>  <ATG_Xbp1_CIS_dn>  (38) 
0.0

>  <ATG_Xbp1_CIS_up>  (38) 
0.0

>  <ATG_p53_CIS_dn>  (38) 
0.0

>  <ATG_p53_CIS_up>  (38) 
0.0

>  <NCCT_HEK293T_CellTiterGLO>  (38) 
0.0

>  <NCCT_QuantiLum_inhib_2_dn>  (38) 
0.0

>  <NCCT_TPO_AUR_dn>  (38) 
1.0

>  <NVS_ADME_hCYP19A1>  (38) 
0.0

>  <NVS_ADME_hCYP19A1_Activator>  (38) 
0.0

>  <NVS_ENZ_hMMP7>  (38) 
0.0

>  <NVS_ENZ_hMMP7_Activator>  (38) 
0.0

>  <NVS_ENZ_oCOX1>  (38) 
0.0

>  <NVS_ENZ_oCOX1_Activator>  (38) 
0.0

>  <NVS_GPCR_rTRH>  (38) 
0.0

>  <NVS_NR_hPXR>  (38) 
0.0

>  <NVS_NR_hTRa_Antagonist>  (38) 
0.0

>  <OT_AR_ARSRC1_0480>  (38) 
0.0

>  <OT_AR_ARSRC1_0960>  (38) 
0.0

>  <OT_ER_ERaERa_0480>  (38) 
0.0

>  <OT_ER_ERaERa_1440>  (38) 
0.0

>  <OT_ER_ERaERb_0480>  (38) 
0.0

>  <OT_ER_ERbERb_0480>  (38) 
0.0

>  <OT_ER_ERbERb_1440>  (38) 
0.0

>  <OT_ERa_EREGFP_0480>  (38) 
0.0

>  <TOX21_AP1_BLA_Agonist_ch1>  (38) 
0.0

>  <TOX21_AP1_BLA_Agonist_ch2>  (38) 
0.0

>  <TOX21_AP1_BLA_Agonist_ratio>  (38) 
0.0

>  <TOX21_AP1_BLA_Agonist_viability>  (38) 
0.0

>  <TOX21_ARE_BLA_Agonist_ch1>  (38) 
0.0

>  <TOX21_ARE_BLA_Agonist_ch2>  (38) 
0.0

>  <TOX21_ARE_BLA_agonist_viability>  (38) 
0.0

>  <TOX21_AR_BLA_Agonist_ch1>  (38) 
0.0

>  <TOX21_AR_BLA_Agonist_ch2>  (38) 
0.0

>  <TOX21_AR_BLA_Agonist_ratio>  (38) 
0.0

>  <TOX21_AR_BLA_Antagonist_ch1>  (38) 
0.0

>  <TOX21_AR_BLA_Antagonist_ch2>  (38) 
0.0

>  <TOX21_AR_BLA_Antagonist_ratio>  (38) 
0.0

>  <TOX21_AR_BLA_Antagonist_viability>  (38) 
0.0

>  <TOX21_AR_LUC_MDAKB2_Agonist>  (38) 
0.0

>  <TOX21_AR_LUC_MDAKB2_Agonist_3uM_Nilutamide>  (38) 
0.0

>  <TOX21_AR_LUC_MDAKB2_Agonist_3uM_Nilutamide_viability>  (38) 
0.0

>  <TOX21_AR_LUC_MDAKB2_Antagonist_0.5nM_R1881>  (38) 
0.0

>  <TOX21_AR_LUC_MDAKB2_Antagonist_0.5nM_R1881_viability>  (38) 
0.0

>  <TOX21_AR_LUC_MDAKB2_Antagonist_10nM_R1881>  (38) 
0.0

>  <TOX21_AR_LUC_MDAKB2_Antagonist_10nM_R1881_viability>  (38) 
0.0

>  <TOX21_AhR_LUC_Agonist>  (38) 
0.0

>  <TOX21_Aromatase_Inhibition>  (38) 
0.0

>  <TOX21_Aromatase_Inhibition_viability>  (38) 
0.0

>  <TOX21_AutoFluor_HEK293_Cell_blue>  (38) 
0.0

>  <TOX21_AutoFluor_HEK293_Cell_green>  (38) 
0.0

>  <TOX21_AutoFluor_HEK293_Cell_red>  (38) 
0.0

>  <TOX21_AutoFluor_HEK293_Media_blue>  (38) 
0.0

>  <TOX21_AutoFluor_HEK293_Media_green>  (38) 
0.0

>  <TOX21_AutoFluor_HEK293_Media_red>  (38) 
0.0

>  <TOX21_AutoFluor_HEPG2_Cell_blue>  (38) 
0.0

>  <TOX21_AutoFluor_HEPG2_Cell_green>  (38) 
0.0

>  <TOX21_AutoFluor_HEPG2_Cell_red>  (38) 
0.0

>  <TOX21_AutoFluor_HEPG2_Media_blue>  (38) 
0.0

>  <TOX21_AutoFluor_HEPG2_Media_green>  (38) 
0.0

>  <TOX21_AutoFluor_HEPG2_Media_red>  (38) 
0.0

>  <TOX21_CAR_Agonist>  (38) 
0.0

>  <TOX21_CAR_Antagonist>  (38) 
0.0

>  <TOX21_CAR_Antagonist_viability>  (38) 
0.0

>  <TOX21_CASP3_CHO>  (38) 
0.0

>  <TOX21_CASP3_CHO_viability>  (38) 
0.0

>  <TOX21_CASP3_HEPG2>  (38) 
0.0

>  <TOX21_CASP3_HEPG2_viability>  (38) 
0.0

>  <TOX21_DT40>  (38) 
0.0

>  <TOX21_DT40_100>  (38) 
0.0

>  <TOX21_DT40_657>  (38) 
0.0

>  <TOX21_ELG1_LUC_Agonist>  (38) 
0.0

>  <TOX21_ELG1_LUC_Agonist_viability>  (38) 
0.0

>  <TOX21_ERR_Agonist>  (38) 
0.0

>  <TOX21_ERR_Antagonist>  (38) 
0.0

>  <TOX21_ERa_BLA_Agonist_ch1>  (38) 
0.0

>  <TOX21_ERa_BLA_Agonist_ch2>  (38) 
0.0

>  <TOX21_ERa_BLA_Agonist_ratio>  (38) 
0.0

>  <TOX21_ERa_BLA_Antagonist_ch1>  (38) 
0.0

>  <TOX21_ERa_BLA_Antagonist_ch2>  (38) 
0.0

>  <TOX21_ERa_BLA_Antagonist_ratio>  (38) 
0.0

>  <TOX21_ERa_BLA_Antagonist_viability>  (38) 
0.0

>  <TOX21_ERa_LUC_VM7_Agonist>  (38) 
1.0

>  <TOX21_ERa_LUC_VM7_Agonist_10nM_ICI182780>  (38) 
0.0

>  <TOX21_ERa_LUC_VM7_Agonist_10nM_ICI182780_viability>  (38) 
0.0

>  <TOX21_ERa_LUC_VM7_Antagonist_0.1nM_E2>  (38) 
0.0

>  <TOX21_ERa_LUC_VM7_Antagonist_0.1nM_E2_viability>  (38) 
0.0

>  <TOX21_ERa_LUC_VM7_Antagonist_0.5nM_E2>  (38) 
0.0

>  <TOX21_ERa_LUC_VM7_Antagonist_0.5nM_E2_viability>  (38) 
0.0

>  <TOX21_ERb_BLA_Agonist_ch1>  (38) 
0.0

>  <TOX21_ERb_BLA_Agonist_ch2>  (38) 
0.0

>  <TOX21_ERb_BLA_Agonist_ratio>  (38) 
0.0

>  <TOX21_ERb_BLA_Agonist_viability>  (38) 
0.0

>  <TOX21_ERb_BLA_Antagonist_ch1>  (38) 
0.0

>  <TOX21_ERb_BLA_Antagonist_ch2>  (38) 
0.0

>  <TOX21_ERb_BLA_Antagonist_ratio>  (38) 
0.0

>  <TOX21_ERb_BLA_Antagonist_viability>  (38) 
0.0

>  <TOX21_ESRE_BLA_ch1>  (38) 
0.0

>  <TOX21_ESRE_BLA_ch2>  (38) 
0.0

>  <TOX21_ESRE_BLA_ratio>  (38) 
0.0

>  <TOX21_ESRE_BLA_viability>  (38) 
0.0

>  <TOX21_FXR_BLA_Antagonist_ch1>  (38) 
0.0

>  <TOX21_FXR_BLA_Antagonist_ch2>  (38) 
0.0

>  <TOX21_FXR_BLA_agonist_ch1>  (38) 
0.0

>  <TOX21_FXR_BLA_agonist_ch2>  (38) 
0.0

>  <TOX21_FXR_BLA_agonist_ratio>  (38) 
0.0

>  <TOX21_FXR_BLA_agonist_viability>  (38) 
0.0

>  <TOX21_FXR_BLA_antagonist_ratio>  (38) 
0.0

>  <TOX21_FXR_BLA_antagonist_viability>  (38) 
0.0

>  <TOX21_GR_BLA_Agonist_ch1>  (38) 
0.0

>  <TOX21_GR_BLA_Agonist_ch2>  (38) 
0.0

>  <TOX21_GR_BLA_Agonist_ratio>  (38) 
0.0

>  <TOX21_GR_BLA_Antagonist_ch1>  (38) 
0.0

>  <TOX21_GR_BLA_Antagonist_ch2>  (38) 
0.0

>  <TOX21_GR_BLA_Antagonist_ratio>  (38) 
0.0

>  <TOX21_GR_BLA_Antagonist_viability>  (38) 
0.0

>  <TOX21_H2AX_HTRF_CHO_Agonist_ch1>  (38) 
0.0

>  <TOX21_H2AX_HTRF_CHO_Agonist_ch2>  (38) 
0.0

>  <TOX21_H2AX_HTRF_CHO_Agonist_ratio>  (38) 
0.0

>  <TOX21_H2AX_HTRF_CHO_viability>  (38) 
0.0

>  <TOX21_HDAC_Inhibition>  (38) 
0.0

>  <TOX21_HDAC_Inhibition_viability>  (38) 
0.0

>  <TOX21_HRE_BLA_Agonist_ch1>  (38) 
0.0

>  <TOX21_HRE_BLA_Agonist_ch2>  (38) 
0.0

>  <TOX21_HRE_BLA_Agonist_ratio>  (38) 
0.0

>  <TOX21_HRE_BLA_Agonist_viability>  (38) 
0.0

>  <TOX21_HSE_BLA_agonist_ch1>  (38) 
0.0

>  <TOX21_HSE_BLA_agonist_ch2>  (38) 
0.0

>  <TOX21_HSE_BLA_agonist_ratio>  (38) 
0.0

>  <TOX21_HSE_BLA_agonist_viability>  (38) 
0.0

>  <TOX21_LUC_Biochem>  (38) 
0.0

>  <TOX21_MMP_fitc>  (38) 
0.0

>  <TOX21_MMP_ratio_down>  (38) 
0.0

>  <TOX21_MMP_ratio_up>  (38) 
0.0

>  <TOX21_MMP_rhodamine>  (38) 
0.0

>  <TOX21_MMP_viability>  (38) 
0.0

>  <TOX21_NFkB_BLA_agonist_ch1>  (38) 
0.0

>  <TOX21_NFkB_BLA_agonist_ch2>  (38) 
0.0

>  <TOX21_NFkB_BLA_agonist_ratio>  (38) 
0.0

>  <TOX21_NFkB_BLA_agonist_viability>  (38) 
0.0

>  <TOX21_PGC_ERR_Agonist>  (38) 
0.0

>  <TOX21_PGC_ERR_Antagonist>  (38) 
0.0

>  <TOX21_PGC_ERR_viability>  (38) 
0.0

>  <TOX21_PPARd_BLA_Agonist_viability>  (38) 
0.0

>  <TOX21_PPARd_BLA_Antagonist_ch1>  (38) 
0.0

>  <TOX21_PPARd_BLA_Antagonist_ch2>  (38) 
0.0

>  <TOX21_PPARd_BLA_agonist_ch1>  (38) 
0.0

>  <TOX21_PPARd_BLA_agonist_ch2>  (38) 
0.0

>  <TOX21_PPARd_BLA_agonist_ratio>  (38) 
0.0

>  <TOX21_PPARd_BLA_antagonist_ratio>  (38) 
0.0

>  <TOX21_PPARd_BLA_antagonist_viability>  (38) 
0.0

>  <TOX21_PPARg_BLA_Agonist_ch1>  (38) 
0.0

>  <TOX21_PPARg_BLA_Agonist_ch2>  (38) 
0.0

>  <TOX21_PPARg_BLA_Agonist_ratio>  (38) 
0.0

>  <TOX21_PPARg_BLA_Antagonist_ch1>  (38) 
0.0

>  <TOX21_PPARg_BLA_Antagonist_ch2>  (38) 
0.0

>  <TOX21_PPARg_BLA_antagonist_ratio>  (38) 
0.0

>  <TOX21_PPARg_BLA_antagonist_viability>  (38) 
0.0

>  <TOX21_PR_BLA_Agonist_ch1>  (38) 
0.0

>  <TOX21_PR_BLA_Agonist_ch2>  (38) 
0.0

>  <TOX21_PR_BLA_Agonist_ratio>  (38) 
0.0

>  <TOX21_PR_BLA_Antagonist_ch1>  (38) 
0.0

>  <TOX21_PR_BLA_Antagonist_ch2>  (38) 
0.0

>  <TOX21_PR_BLA_Antagonist_ratio>  (38) 
0.0

>  <TOX21_PR_BLA_Antagonist_viability>  (38) 
0.0

>  <TOX21_PXR_Agonist>  (38) 
0.0

>  <TOX21_PXR_viability>  (38) 
0.0

>  <TOX21_RAR_LUC_Agonist>  (38) 
0.0

>  <TOX21_RAR_LUC_Agonist_viability>  (38) 
0.0

>  <TOX21_RAR_LUC_Antagonist_viability>  (38) 
0.0

>  <TOX21_RORg_LUC_CHO_Antagonist>  (38) 
0.0

>  <TOX21_RORg_LUC_CHO_Antagonist_viability>  (38) 
0.0

>  <TOX21_RT_HEK293_FLO_00hr_viability>  (38) 
0.0

>  <TOX21_RT_HEK293_FLO_08hr_viability>  (38) 
0.0

>  <TOX21_RT_HEK293_FLO_16hr_viability>  (38) 
0.0

>  <TOX21_RT_HEK293_FLO_24hr_viability>  (38) 
0.0

>  <TOX21_RT_HEK293_FLO_32hr_viability>  (38) 
0.0

>  <TOX21_RT_HEK293_FLO_40hr_viability>  (38) 
0.0

>  <TOX21_RT_HEK293_GLO_00hr_viability>  (38) 
0.0

>  <TOX21_RT_HEK293_GLO_08hr_viability>  (38) 
0.0

>  <TOX21_RT_HEK293_GLO_16hr_viability>  (38) 
0.0

>  <TOX21_RT_HEK293_GLO_24hr_viability>  (38) 
0.0

>  <TOX21_RT_HEK293_GLO_32hr_viability>  (38) 
0.0

>  <TOX21_RT_HEK293_GLO_40hr_viability>  (38) 
0.0

>  <TOX21_RT_HEPG2_FLO_00hr_ctrl_viability>  (38) 
0.0

>  <TOX21_RT_HEPG2_FLO_08hr_viability>  (38) 
0.0

>  <TOX21_RT_HEPG2_FLO_16hr_ctrl_viability>  (38) 
0.0

>  <TOX21_RT_HEPG2_FLO_24hr_viability>  (38) 
0.0

>  <TOX21_RT_HEPG2_FLO_32hr_ctrl_viability>  (38) 
0.0

>  <TOX21_RT_HEPG2_GLO_00hr_ctrl_viability>  (38) 
0.0

>  <TOX21_RT_HEPG2_GLO_08hr_ctrl_viability>  (38) 
0.0

>  <TOX21_RT_HEPG2_GLO_16hr_ctrl_viability>  (38) 
0.0

>  <TOX21_RT_HEPG2_GLO_24hr_ctrl_viability>  (38) 
0.0

>  <TOX21_RT_HEPG2_GLO_32hr_ctrl_viability>  (38) 
0.0

>  <TOX21_RT_HEPG2_GLO_40hr_viability>  (38) 
0.0

>  <TOX21_RXR_BLA_Agonist_ch1>  (38) 
0.0

>  <TOX21_RXR_BLA_Agonist_ch2>  (38) 
0.0

>  <TOX21_RXR_BLA_Agonist_ratio>  (38) 
0.0

>  <TOX21_RXR_BLA_Agonist_viability>  (38) 
0.0

>  <TOX21_SBE_BLA_Agonist_ch1>  (38) 
0.0

>  <TOX21_SBE_BLA_Agonist_ch2>  (38) 
0.0

>  <TOX21_SBE_BLA_Agonist_ratio>  (38) 
0.0

>  <TOX21_SBE_BLA_Agonist_viability>  (38) 
0.0

>  <TOX21_SBE_BLA_Antagonist_ch1>  (38) 
0.0

>  <TOX21_SBE_BLA_Antagonist_ch2>  (38) 
0.0

>  <TOX21_SBE_BLA_Antagonist_ratio>  (38) 
0.0

>  <TOX21_SBE_BLA_Antagonist_viability>  (38) 
0.0

>  <TOX21_SSH_3T3_GLI3_Agonist>  (38) 
0.0

>  <TOX21_SSH_3T3_GLI3_Agonist_viability>  (38) 
0.0

>  <TOX21_SSH_3T3_GLI3_Antagonist>  (38) 
0.0

>  <TOX21_SSH_3T3_GLI3_Antagonist_viability>  (38) 
0.0

>  <TOX21_TRHR_HEK293_Agonist>  (38) 
0.0

>  <TOX21_TRHR_HEK293_Antagonist>  (38) 
0.0

>  <TOX21_TR_LUC_GH3_Agonist>  (38) 
0.0

>  <TOX21_TR_LUC_GH3_Antagonist>  (38) 
0.0

>  <TOX21_TR_LUC_GH3_Antagonist_viability>  (38) 
0.0

>  <TOX21_TSHR_Agonist_ch2>  (38) 
0.0

>  <TOX21_TSHR_Antagonist_ch2>  (38) 
0.0

>  <TOX21_TSHR_Antagonist_ratio>  (38) 
0.0

>  <TOX21_TSHR_HTRF_Agonist_ch1>  (38) 
0.0

>  <TOX21_TSHR_HTRF_Antagonist_ch1>  (38) 
0.0

>  <TOX21_TSHR_wt_HTRF_ch1>  (38) 
0.0

>  <TOX21_TSHR_wt_ch2>  (38) 
0.0

>  <TOX21_TSHR_wt_ratio>  (38) 
0.0

>  <TOX21_VDR_BLA_Agonist_viability>  (38) 
0.0

>  <TOX21_VDR_BLA_Antagonist_ch1>  (38) 
0.0

>  <TOX21_VDR_BLA_Antagonist_ch2>  (38) 
0.0

>  <TOX21_VDR_BLA_agonist_ch1>  (38) 
0.0

>  <TOX21_VDR_BLA_agonist_ch2>  (38) 
0.0

>  <TOX21_VDR_BLA_agonist_ratio>  (38) 
0.0

>  <TOX21_VDR_BLA_antagonist_ratio>  (38) 
0.0

>  <TOX21_VDR_BLA_antagonist_viability>  (38) 
0.0

>  <TOX21_p53_BLA_p1_ch1>  (38) 
0.0

>  <TOX21_p53_BLA_p1_ch2>  (38) 
0.0

>  <TOX21_p53_BLA_p1_ratio>  (38) 
0.0

>  <TOX21_p53_BLA_p1_viability>  (38) 
0.0

>  <TOX21_p53_BLA_p2_ch1>  (38) 
0.0

>  <TOX21_p53_BLA_p2_ch2>  (38) 
0.0

>  <TOX21_p53_BLA_p2_ratio>  (38) 
0.0

>  <TOX21_p53_BLA_p2_viability>  (38) 
0.0

>  <TOX21_p53_BLA_p3_ch1>  (38) 
0.0

>  <TOX21_p53_BLA_p3_ch2>  (38) 
0.0

>  <TOX21_p53_BLA_p3_ratio>  (38) 
0.0

>  <TOX21_p53_BLA_p4_ch1>  (38) 
0.0

>  <TOX21_p53_BLA_p4_ch2>  (38) 
0.0

>  <TOX21_p53_BLA_p4_ratio>  (38) 
0.0

>  <TOX21_p53_BLA_p4_viability>  (38) 
0.0

>  <TOX21_p53_BLA_p5_ch1>  (38) 
0.0

>  <TOX21_p53_BLA_p5_ch2>  (38) 
0.0

>  <TOX21_p53_BLA_p5_ratio>  (38) 
0.0

>  <TOX21_p53_BLA_p5_viability>  (38) 
0.0

>  <UPITT_HCI_U2OS_AR_TIF2_Nucleoli_Agonist>  (38) 
0.0

>  <UPITT_HCI_U2OS_AR_TIF2_Nucleoli_Antagonist>  (38) 
0.0

>  <UPITT_HCI_U2OS_AR_TIF2_Nucleoli_Cytoplasm_Ratio_Agonist>  (38) 
0.0

>  <UPITT_HCI_U2OS_AR_TIF2_Nucleoli_Cytoplasm_Ratio_Antagonist>  (38) 
0.0

>  <NVS_NR_mERa>  (38) 
0.0

$$$$

     RDKit          3D

 16 16  0  0  0  0  0  0  0  0999 V2000
    0.0000    0.0000    0.0000 C   0  0  0  0  0  0  0  0  0  0  0  0
    0.0000    0.0000    0.0000 C   0  0  0  0  0  0  0  0  0  0  0  0
    0.0000    0.0000    0.0000 O   0  0  0  0  0  0  0  0  0  0  0  0
    0.0000    0.0000    0.0000 C   0  0  0  0  0  0  0  0  0  0  0  0
    0.0000    0.0000    0.0000 O   0  0  0  0  0  0  0  0  0  0  0  0
    0.0000    0.0000    0.0000 C   0  0  0  0  0  0  0  0  0  0  0  0
    0.0000    0.0000    0.0000 C   0  0  0  0  0  0  0  0  0  0  0  0
    0.0000    0.0000    0.0000 C   0  0  0  0  0  0  0  0  0  0  0  0
    0.0000    0.0000    0.0000 C   0  0  0  0  0  0  0  0  0  0  0  0
    0.0000    0.0000    0.0000 C   0  0  0  0  0  0  0  0  0  0  0  0
    0.0000    0.0000    0.0000 C   0  0  0  0  0  0  0  0  0  0  0  0
    0.0000    0.0000    0.0000 C   0  0  0  0  0  0  0  0  0  0  0  0
    0.0000    0.0000    0.0000 O   0  0  0  0  0  0  0  0  0  0  0  0
    0.0000    0.0000    0.0000 O   0  0  0  0  0  0  0  0  0  0  0  0
    0.0000    0.0000    0.0000 C   0  0  0  0  0  0  0  0  0  0  0  0
    0.0000    0.0000    0.0000 C   0  0  0  0  0  0  0  0  0  0  0  0
  1  2  1  0
  2  3  1  0
  3  4  1  0
  4  5  2  0
  4  6  1  0
  6  7  2  0
  7  8  1  0
  8  9  2  0
  9 10  1  0
 10 11  2  0
 11 12  1  0
 12 13  2  0
 12 14  1  0
 14 15  1  0
 15 16  1  0
 11  6  1  0
M  END
>  <CASRN>  (39) 
84-66-2

>  <Name>  (39) 
Diethyl phthalate

>  <Active>  (39) 
0

>  <Inactive>  (39) 
2

>  <Bioactivity>  (39) 
Inactive

>  <Min LEL>  (39) 
nan

>  <Max HDT>  (39) 
2000.0

>  <Class>  (39) 
0

>  <Code>  (39) 
C84662

>  <NVS_NR_hAR>  (39) 
0.0

>  <NVS_NR_hPR>  (39) 
0.0

>  <OT_ER_ERaERb_1440>  (39) 
0.0

>  <OT_FXR_FXRSRC1_0480>  (39) 
0.0

>  <OT_PPARg_PPARgSRC1_1440>  (39) 
0.0

>  <OT_FXR_FXRSRC1_1440>  (39) 
0.0

>  <OT_NURR1_NURR1RXRa_0480>  (39) 
0.0

>  <OT_NURR1_NURR1RXRa_1440>  (39) 
0.0

>  <OT_PPARg_PPARgSRC1_0480>  (39) 
0.0

>  <OT_AR_ARELUC_AG_1440>  (39) 
0.0

>  <OT_ERa_EREGFP_0120>  (39) 
0.0

>  <BSK_3C_HLADR_down>  (39) 
0.0

>  <BSK_3C_Vis_down>  (39) 
0.0

>  <BSK_3C_uPAR_down>  (39) 
0.0

>  <ATG_CAR_TRANS_up>  (39) 
0.0

>  <ATG_E2F_CIS_dn>  (39) 
0.0

>  <ATG_EGR_CIS_up>  (39) 
0.0

>  <ATG_ERa_TRANS_dn>  (39) 
0.0

>  <ATG_ERa_TRANS_up>  (39) 
0.0

>  <ATG_FXR_TRANS_dn>  (39) 
0.0

>  <ATG_GLI_CIS_dn>  (39) 
0.0

>  <ATG_GRE_CIS_up>  (39) 
0.0

>  <ATG_LXRa_TRANS_dn>  (39) 
0.0

>  <ATG_LXRa_TRANS_up>  (39) 
0.0

>  <ATG_NRF1_CIS_up>  (39) 
0.0

>  <ATG_NURR1_TRANS_up>  (39) 
0.0

>  <ATG_Sox_CIS_dn>  (39) 
0.0

>  <ATG_Sox_CIS_up>  (39) 
0.0

>  <ATG_Sp1_CIS_up>  (39) 
0.0

>  <ATG_TGFb_CIS_up>  (39) 
0.0

>  <TOX21_ARE_BLA_agonist_ratio>  (39) 
0.0

>  <TOX21_RAR_LUC_Antagonist>  (39) 
0.0

>  <ATG_LXRb_TRANS_dn>  (39) 
0.0

>  <ATG_CAR_TRANS_dn>  (39) 
0.0

>  <ATG_BRE_CIS_dn>  (39) 
0.0

>  <ATG_E2F_CIS_up>  (39) 
0.0

>  <TOX21_TSHR_Agonist_ratio>  (39) 
0.0

>  <ACEA_ER_80hr>  (39) 
0.0

>  <TOX21_CAR_Agonist_viabillity>  (39) 
0.0

>  <TOX21_PR_BLA_Agonist_viability>  (39) 
0.0

>  <TOX21_RT_HEPG2_FLO_40hr_ctrl_viability>  (39) 
0.0

>  <TOX21_AhR_LUC_Agonist_viability>  (39) 
0.0

>  <TOX21_ERR_viability>  (39) 
0.0

>  <TOX21_p53_BLA_p3_viability>  (39) 
0.0

>  <NVS_NR_hER>  (39) 
0.0

>  <NVS_NR_cAR>  (39) 
0.0

>  <NVS_NR_rAR>  (39) 
0.0

>  <NVS_NR_hGR>  (39) 
0.0

>  <ACEA_AR_agonist_80hr>  (39) 
0.0

>  <ACEA_AR_agonist_AUC_viability>  (39) 
0.0

>  <ACEA_AR_antagonist_80hr>  (39) 
0.0

>  <ACEA_AR_antagonist_AUC_viability>  (39) 
0.0

>  <ACEA_ER_AUC_viability>  (39) 
0.0

>  <APR_HepG2_CellCycleArrest_24h_dn>  (39) 
0.0

>  <APR_HepG2_CellCycleArrest_24h_up>  (39) 
0.0

>  <APR_HepG2_CellCycleArrest_72h_dn>  (39) 
0.0

>  <APR_HepG2_CellCycleArrest_72h_up>  (39) 
0.0

>  <APR_HepG2_CellLoss_24h_dn>  (39) 
0.0

>  <APR_HepG2_CellLoss_24h_up>  (39) 
0.0

>  <APR_HepG2_CellLoss_72h_dn>  (39) 
0.0

>  <APR_HepG2_CellLoss_72h_up>  (39) 
0.0

>  <APR_HepG2_MicrotubuleCSK_24h_dn>  (39) 
0.0

>  <APR_HepG2_MicrotubuleCSK_24h_up>  (39) 
0.0

>  <APR_HepG2_MicrotubuleCSK_72h_dn>  (39) 
0.0

>  <APR_HepG2_MicrotubuleCSK_72h_up>  (39) 
0.0

>  <APR_HepG2_MitoMass_24h_dn>  (39) 
0.0

>  <APR_HepG2_MitoMass_24h_up>  (39) 
0.0

>  <APR_HepG2_MitoMass_72h_dn>  (39) 
0.0

>  <APR_HepG2_MitoMass_72h_up>  (39) 
0.0

>  <APR_HepG2_MitoMembPot_24h_dn>  (39) 
0.0

>  <APR_HepG2_MitoMembPot_24h_up>  (39) 
0.0

>  <APR_HepG2_MitoMembPot_72h_dn>  (39) 
0.0

>  <APR_HepG2_MitoMembPot_72h_up>  (39) 
0.0

>  <APR_HepG2_MitoticArrest_24h_dn>  (39) 
0.0

>  <APR_HepG2_MitoticArrest_24h_up>  (39) 
0.0

>  <APR_HepG2_MitoticArrest_72h_dn>  (39) 
0.0

>  <APR_HepG2_MitoticArrest_72h_up>  (39) 
0.0

>  <APR_HepG2_NuclearSize_24h_dn>  (39) 
0.0

>  <APR_HepG2_NuclearSize_24h_up>  (39) 
0.0

>  <APR_HepG2_NuclearSize_72h_dn>  (39) 
0.0

>  <APR_HepG2_NuclearSize_72h_up>  (39) 
0.0

>  <APR_HepG2_OxidativeStress_24h_dn>  (39) 
0.0

>  <APR_HepG2_OxidativeStress_24h_up>  (39) 
0.0

>  <APR_HepG2_OxidativeStress_72h_dn>  (39) 
0.0

>  <APR_HepG2_OxidativeStress_72h_up>  (39) 
0.0

>  <APR_HepG2_StressKinase_24h_dn>  (39) 
0.0

>  <APR_HepG2_StressKinase_24h_up>  (39) 
0.0

>  <APR_HepG2_StressKinase_72h_dn>  (39) 
0.0

>  <APR_HepG2_StressKinase_72h_up>  (39) 
0.0

>  <APR_HepG2_p53Act_24h_dn>  (39) 
0.0

>  <APR_HepG2_p53Act_24h_up>  (39) 
0.0

>  <APR_HepG2_p53Act_72h_dn>  (39) 
0.0

>  <APR_HepG2_p53Act_72h_up>  (39) 
0.0

>  <ATG_AP_1_CIS_dn>  (39) 
0.0

>  <ATG_AP_1_CIS_up>  (39) 
0.0

>  <ATG_AP_2_CIS_dn>  (39) 
0.0

>  <ATG_AP_2_CIS_up>  (39) 
0.0

>  <ATG_AR_TRANS_dn>  (39) 
0.0

>  <ATG_AR_TRANS_up>  (39) 
0.0

>  <ATG_Ahr_CIS_dn>  (39) 
0.0

>  <ATG_Ahr_CIS_up>  (39) 
0.0

>  <ATG_BRE_CIS_up>  (39) 
0.0

>  <ATG_CMV_CIS_dn>  (39) 
0.0

>  <ATG_CMV_CIS_up>  (39) 
0.0

>  <ATG_CRE_CIS_dn>  (39) 
0.0

>  <ATG_CRE_CIS_up>  (39) 
0.0

>  <ATG_C_EBP_CIS_dn>  (39) 
0.0

>  <ATG_C_EBP_CIS_up>  (39) 
0.0

>  <ATG_DR4_LXR_CIS_dn>  (39) 
0.0

>  <ATG_DR4_LXR_CIS_up>  (39) 
0.0

>  <ATG_DR5_CIS_dn>  (39) 
0.0

>  <ATG_DR5_CIS_up>  (39) 
0.0

>  <ATG_EGR_CIS_dn>  (39) 
0.0

>  <ATG_ERE_CIS_dn>  (39) 
0.0

>  <ATG_ERE_CIS_up>  (39) 
0.0

>  <ATG_ERRa_TRANS_dn>  (39) 
0.0

>  <ATG_ERRa_TRANS_up>  (39) 
0.0

>  <ATG_ERRg_TRANS_dn>  (39) 
0.0

>  <ATG_ERRg_TRANS_up>  (39) 
0.0

>  <ATG_E_Box_CIS_dn>  (39) 
0.0

>  <ATG_E_Box_CIS_up>  (39) 
0.0

>  <ATG_Ets_CIS_dn>  (39) 
0.0

>  <ATG_Ets_CIS_up>  (39) 
0.0

>  <ATG_FXR_TRANS_up>  (39) 
0.0

>  <ATG_FoxA2_CIS_dn>  (39) 
0.0

>  <ATG_FoxA2_CIS_up>  (39) 
0.0

>  <ATG_FoxO_CIS_dn>  (39) 
0.0

>  <ATG_FoxO_CIS_up>  (39) 
0.0

>  <ATG_GAL4_TRANS_dn>  (39) 
0.0

>  <ATG_GAL4_TRANS_up>  (39) 
0.0

>  <ATG_GATA_CIS_dn>  (39) 
0.0

>  <ATG_GATA_CIS_up>  (39) 
0.0

>  <ATG_GLI_CIS_up>  (39) 
0.0

>  <ATG_GRE_CIS_dn>  (39) 
0.0

>  <ATG_GR_TRANS_dn>  (39) 
0.0

>  <ATG_GR_TRANS_up>  (39) 
0.0

>  <ATG_HIF1a_CIS_dn>  (39) 
0.0

>  <ATG_HIF1a_CIS_up>  (39) 
0.0

>  <ATG_HNF4a_TRANS_dn>  (39) 
0.0

>  <ATG_HNF4a_TRANS_up>  (39) 
0.0

>  <ATG_HNF6_CIS_dn>  (39) 
0.0

>  <ATG_HNF6_CIS_up>  (39) 
0.0

>  <ATG_HSE_CIS_dn>  (39) 
0.0

>  <ATG_HSE_CIS_up>  (39) 
0.0

>  <ATG_IR1_CIS_dn>  (39) 
0.0

>  <ATG_IR1_CIS_up>  (39) 
0.0

>  <ATG_ISRE_CIS_dn>  (39) 
0.0

>  <ATG_ISRE_CIS_up>  (39) 
0.0

>  <ATG_LXRb_TRANS_up>  (39) 
0.0

>  <ATG_MRE_CIS_dn>  (39) 
0.0

>  <ATG_MRE_CIS_up>  (39) 
0.0

>  <ATG_M_06_CIS_dn>  (39) 
0.0

>  <ATG_M_06_CIS_up>  (39) 
0.0

>  <ATG_M_06_TRANS_dn>  (39) 
0.0

>  <ATG_M_06_TRANS_up>  (39) 
0.0

>  <ATG_M_19_CIS_dn>  (39) 
0.0

>  <ATG_M_19_CIS_up>  (39) 
0.0

>  <ATG_M_19_TRANS_dn>  (39) 
0.0

>  <ATG_M_19_TRANS_up>  (39) 
0.0

>  <ATG_M_32_CIS_dn>  (39) 
0.0

>  <ATG_M_32_CIS_up>  (39) 
0.0

>  <ATG_M_32_TRANS_dn>  (39) 
0.0

>  <ATG_M_32_TRANS_up>  (39) 
0.0

>  <ATG_M_61_CIS_dn>  (39) 
0.0

>  <ATG_M_61_CIS_up>  (39) 
0.0

>  <ATG_M_61_TRANS_dn>  (39) 
0.0

>  <ATG_M_61_TRANS_up>  (39) 
0.0

>  <ATG_Myb_CIS_dn>  (39) 
0.0

>  <ATG_Myb_CIS_up>  (39) 
0.0

>  <ATG_Myc_CIS_dn>  (39) 
0.0

>  <ATG_Myc_CIS_up>  (39) 
0.0

>  <ATG_NFI_CIS_dn>  (39) 
0.0

>  <ATG_NFI_CIS_up>  (39) 
0.0

>  <ATG_NF_kB_CIS_dn>  (39) 
0.0

>  <ATG_NF_kB_CIS_up>  (39) 
0.0

>  <ATG_NRF1_CIS_dn>  (39) 
0.0

>  <ATG_NRF2_ARE_CIS_dn>  (39) 
0.0

>  <ATG_NRF2_ARE_CIS_up>  (39) 
0.0

>  <ATG_NURR1_TRANS_dn>  (39) 
0.0

>  <ATG_Oct_MLP_CIS_dn>  (39) 
1.0

>  <ATG_Oct_MLP_CIS_up>  (39) 
0.0

>  <ATG_PBREM_CIS_dn>  (39) 
0.0

>  <ATG_PBREM_CIS_up>  (39) 
0.0

>  <ATG_PPARa_TRANS_dn>  (39) 
0.0

>  <ATG_PPARa_TRANS_up>  (39) 
0.0

>  <ATG_PPARd_TRANS_dn>  (39) 
0.0

>  <ATG_PPARd_TRANS_up>  (39) 
0.0

>  <ATG_PPARg_TRANS_dn>  (39) 
0.0

>  <ATG_PPARg_TRANS_up>  (39) 
0.0

>  <ATG_PPRE_CIS_dn>  (39) 
0.0

>  <ATG_PPRE_CIS_up>  (39) 
0.0

>  <ATG_PXRE_CIS_dn>  (39) 
0.0

>  <ATG_PXRE_CIS_up>  (39) 
0.0

>  <ATG_PXR_TRANS_dn>  (39) 
0.0

>  <ATG_PXR_TRANS_up>  (39) 
0.0

>  <ATG_Pax6_CIS_dn>  (39) 
0.0

>  <ATG_Pax6_CIS_up>  (39) 
0.0

>  <ATG_RARa_TRANS_dn>  (39) 
0.0

>  <ATG_RARa_TRANS_up>  (39) 
0.0

>  <ATG_RARb_TRANS_dn>  (39) 
0.0

>  <ATG_RARb_TRANS_up>  (39) 
0.0

>  <ATG_RARg_TRANS_dn>  (39) 
0.0

>  <ATG_RARg_TRANS_up>  (39) 
0.0

>  <ATG_RORE_CIS_dn>  (39) 
0.0

>  <ATG_RORE_CIS_up>  (39) 
0.0

>  <ATG_RORb_TRANS_dn>  (39) 
0.0

>  <ATG_RORb_TRANS_up>  (39) 
0.0

>  <ATG_RORg_TRANS_dn>  (39) 
0.0

>  <ATG_RORg_TRANS_up>  (39) 
0.0

>  <ATG_RXRa_TRANS_dn>  (39) 
0.0

>  <ATG_RXRa_TRANS_up>  (39) 
0.0

>  <ATG_RXRb_TRANS_dn>  (39) 
0.0

>  <ATG_RXRb_TRANS_up>  (39) 
0.0

>  <ATG_SREBP_CIS_dn>  (39) 
0.0

>  <ATG_SREBP_CIS_up>  (39) 
0.0

>  <ATG_STAT3_CIS_dn>  (39) 
0.0

>  <ATG_STAT3_CIS_up>  (39) 
0.0

>  <ATG_Sp1_CIS_dn>  (39) 
0.0

>  <ATG_TAL_CIS_dn>  (39) 
0.0

>  <ATG_TAL_CIS_up>  (39) 
0.0

>  <ATG_TA_CIS_dn>  (39) 
0.0

>  <ATG_TA_CIS_up>  (39) 
0.0

>  <ATG_TCF_b_cat_CIS_dn>  (39) 
0.0

>  <ATG_TCF_b_cat_CIS_up>  (39) 
0.0

>  <ATG_TGFb_CIS_dn>  (39) 
0.0

>  <ATG_THRa1_TRANS_dn>  (39) 
0.0

>  <ATG_THRa1_TRANS_up>  (39) 
0.0

>  <ATG_VDRE_CIS_dn>  (39) 
0.0

>  <ATG_VDRE_CIS_up>  (39) 
0.0

>  <ATG_VDR_TRANS_dn>  (39) 
0.0

>  <ATG_VDR_TRANS_up>  (39) 
0.0

>  <ATG_XTT_Cytotoxicity_up>  (39) 
0.0

>  <ATG_Xbp1_CIS_dn>  (39) 
0.0

>  <ATG_Xbp1_CIS_up>  (39) 
0.0

>  <ATG_p53_CIS_dn>  (39) 
0.0

>  <ATG_p53_CIS_up>  (39) 
0.0

>  <BSK_3C_Eselectin_down>  (39) 
0.0

>  <BSK_3C_Eselectin_up>  (39) 
0.0

>  <BSK_3C_HLADR_up>  (39) 
0.0

>  <BSK_3C_ICAM1_down>  (39) 
0.0

>  <BSK_3C_ICAM1_up>  (39) 
0.0

>  <BSK_3C_IL8_down>  (39) 
0.0

>  <BSK_3C_IL8_up>  (39) 
0.0

>  <BSK_3C_MCP1_down>  (39) 
0.0

>  <BSK_3C_MCP1_up>  (39) 
0.0

>  <BSK_3C_MIG_down>  (39) 
0.0

>  <BSK_3C_MIG_up>  (39) 
0.0

>  <BSK_3C_Proliferation_down>  (39) 
0.0

>  <BSK_3C_Proliferation_up>  (39) 
0.0

>  <BSK_3C_SRB_down>  (39) 
0.0

>  <BSK_3C_SRB_up>  (39) 
0.0

>  <BSK_3C_Thrombomodulin_down>  (39) 
0.0

>  <BSK_3C_Thrombomodulin_up>  (39) 
0.0

>  <BSK_3C_TissueFactor_down>  (39) 
0.0

>  <BSK_3C_TissueFactor_up>  (39) 
0.0

>  <BSK_3C_VCAM1_down>  (39) 
0.0

>  <BSK_3C_VCAM1_up>  (39) 
0.0

>  <BSK_3C_Vis_up>  (39) 
0.0

>  <BSK_3C_uPAR_up>  (39) 
0.0

>  <BSK_4H_Eotaxin3_down>  (39) 
0.0

>  <BSK_4H_Eotaxin3_up>  (39) 
0.0

>  <BSK_4H_MCP1_down>  (39) 
0.0

>  <BSK_4H_MCP1_up>  (39) 
0.0

>  <BSK_4H_Pselectin_down>  (39) 
0.0

>  <BSK_4H_Pselectin_up>  (39) 
0.0

>  <BSK_4H_SRB_down>  (39) 
0.0

>  <BSK_4H_SRB_up>  (39) 
0.0

>  <BSK_4H_VCAM1_down>  (39) 
0.0

>  <BSK_4H_VCAM1_up>  (39) 
0.0

>  <BSK_4H_VEGFRII_down>  (39) 
0.0

>  <BSK_4H_VEGFRII_up>  (39) 
0.0

>  <BSK_4H_uPAR_down>  (39) 
0.0

>  <BSK_4H_uPAR_up>  (39) 
0.0

>  <BSK_BE3C_HLADR_down>  (39) 
0.0

>  <BSK_BE3C_HLADR_up>  (39) 
0.0

>  <BSK_BE3C_IL1a_down>  (39) 
0.0

>  <BSK_BE3C_IL1a_up>  (39) 
0.0

>  <BSK_BE3C_IP10_down>  (39) 
0.0

>  <BSK_BE3C_IP10_up>  (39) 
0.0

>  <BSK_BE3C_MIG_down>  (39) 
0.0

>  <BSK_BE3C_MIG_up>  (39) 
0.0

>  <BSK_BE3C_MMP1_down>  (39) 
0.0

>  <BSK_BE3C_MMP1_up>  (39) 
0.0

>  <BSK_BE3C_PAI1_down>  (39) 
0.0

>  <BSK_BE3C_PAI1_up>  (39) 
0.0

>  <BSK_BE3C_SRB_down>  (39) 
0.0

>  <BSK_BE3C_SRB_up>  (39) 
0.0

>  <BSK_BE3C_TGFb1_down>  (39) 
0.0

>  <BSK_BE3C_TGFb1_up>  (39) 
0.0

>  <BSK_BE3C_tPA_down>  (39) 
0.0

>  <BSK_BE3C_tPA_up>  (39) 
0.0

>  <BSK_BE3C_uPAR_down>  (39) 
0.0

>  <BSK_BE3C_uPAR_up>  (39) 
0.0

>  <BSK_BE3C_uPA_down>  (39) 
0.0

>  <BSK_BE3C_uPA_up>  (39) 
0.0

>  <BSK_CASM3C_HLADR_down>  (39) 
0.0

>  <BSK_CASM3C_HLADR_up>  (39) 
0.0

>  <BSK_CASM3C_IL6_down>  (39) 
0.0

>  <BSK_CASM3C_IL6_up>  (39) 
0.0

>  <BSK_CASM3C_IL8_down>  (39) 
0.0

>  <BSK_CASM3C_IL8_up>  (39) 
0.0

>  <BSK_CASM3C_LDLR_down>  (39) 
0.0

>  <BSK_CASM3C_LDLR_up>  (39) 
0.0

>  <BSK_CASM3C_MCP1_down>  (39) 
0.0

>  <BSK_CASM3C_MCP1_up>  (39) 
0.0

>  <BSK_CASM3C_MCSF_down>  (39) 
0.0

>  <BSK_CASM3C_MCSF_up>  (39) 
0.0

>  <BSK_CASM3C_MIG_down>  (39) 
0.0

>  <BSK_CASM3C_MIG_up>  (39) 
0.0

>  <BSK_CASM3C_Proliferation_down>  (39) 
0.0

>  <BSK_CASM3C_Proliferation_up>  (39) 
0.0

>  <BSK_CASM3C_SAA_down>  (39) 
0.0

>  <BSK_CASM3C_SAA_up>  (39) 
0.0

>  <BSK_CASM3C_SRB_down>  (39) 
0.0

>  <BSK_CASM3C_SRB_up>  (39) 
0.0

>  <BSK_CASM3C_Thrombomodulin_down>  (39) 
0.0

>  <BSK_CASM3C_Thrombomodulin_up>  (39) 
0.0

>  <BSK_CASM3C_TissueFactor_down>  (39) 
0.0

>  <BSK_CASM3C_TissueFactor_up>  (39) 
0.0

>  <BSK_CASM3C_VCAM1_down>  (39) 
0.0

>  <BSK_CASM3C_VCAM1_up>  (39) 
0.0

>  <BSK_CASM3C_uPAR_down>  (39) 
0.0

>  <BSK_CASM3C_uPAR_up>  (39) 
0.0

>  <BSK_KF3CT_ICAM1_down>  (39) 
0.0

>  <BSK_KF3CT_ICAM1_up>  (39) 
0.0

>  <BSK_KF3CT_IL1a_down>  (39) 
0.0

>  <BSK_KF3CT_IL1a_up>  (39) 
0.0

>  <BSK_KF3CT_IP10_down>  (39) 
0.0

>  <BSK_KF3CT_IP10_up>  (39) 
0.0

>  <BSK_KF3CT_MCP1_down>  (39) 
0.0

>  <BSK_KF3CT_MCP1_up>  (39) 
0.0

>  <BSK_KF3CT_MMP9_down>  (39) 
0.0

>  <BSK_KF3CT_MMP9_up>  (39) 
0.0

>  <BSK_KF3CT_SRB_down>  (39) 
0.0

>  <BSK_KF3CT_SRB_up>  (39) 
0.0

>  <BSK_KF3CT_TGFb1_down>  (39) 
0.0

>  <BSK_KF3CT_TGFb1_up>  (39) 
0.0

>  <BSK_KF3CT_TIMP2_down>  (39) 
0.0

>  <BSK_KF3CT_TIMP2_up>  (39) 
0.0

>  <BSK_KF3CT_uPA_down>  (39) 
0.0

>  <BSK_KF3CT_uPA_up>  (39) 
0.0

>  <BSK_LPS_CD40_down>  (39) 
0.0

>  <BSK_LPS_CD40_up>  (39) 
0.0

>  <BSK_LPS_Eselectin_down>  (39) 
0.0

>  <BSK_LPS_Eselectin_up>  (39) 
0.0

>  <BSK_LPS_IL1a_down>  (39) 
0.0

>  <BSK_LPS_IL1a_up>  (39) 
0.0

>  <BSK_LPS_IL8_down>  (39) 
0.0

>  <BSK_LPS_IL8_up>  (39) 
0.0

>  <BSK_LPS_MCP1_down>  (39) 
0.0

>  <BSK_LPS_MCP1_up>  (39) 
0.0

>  <BSK_LPS_MCSF_down>  (39) 
0.0

>  <BSK_LPS_MCSF_up>  (39) 
0.0

>  <BSK_LPS_PGE2_down>  (39) 
0.0

>  <BSK_LPS_PGE2_up>  (39) 
0.0

>  <BSK_LPS_SRB_down>  (39) 
0.0

>  <BSK_LPS_SRB_up>  (39) 
0.0

>  <BSK_LPS_TNFa_down>  (39) 
0.0

>  <BSK_LPS_TNFa_up>  (39) 
0.0

>  <BSK_LPS_TissueFactor_down>  (39) 
0.0

>  <BSK_LPS_TissueFactor_up>  (39) 
0.0

>  <BSK_LPS_VCAM1_down>  (39) 
0.0

>  <BSK_LPS_VCAM1_up>  (39) 
0.0

>  <BSK_SAg_CD38_down>  (39) 
0.0

>  <BSK_SAg_CD38_up>  (39) 
0.0

>  <BSK_SAg_CD40_down>  (39) 
0.0

>  <BSK_SAg_CD40_up>  (39) 
0.0

>  <BSK_SAg_CD69_down>  (39) 
0.0

>  <BSK_SAg_CD69_up>  (39) 
0.0

>  <BSK_SAg_Eselectin_down>  (39) 
0.0

>  <BSK_SAg_Eselectin_up>  (39) 
0.0

>  <BSK_SAg_IL8_down>  (39) 
0.0

>  <BSK_SAg_IL8_up>  (39) 
0.0

>  <BSK_SAg_MCP1_down>  (39) 
0.0

>  <BSK_SAg_MCP1_up>  (39) 
0.0

>  <BSK_SAg_MIG_down>  (39) 
0.0

>  <BSK_SAg_MIG_up>  (39) 
0.0

>  <BSK_SAg_PBMCCytotoxicity_down>  (39) 
0.0

>  <BSK_SAg_PBMCCytotoxicity_up>  (39) 
0.0

>  <BSK_SAg_Proliferation_down>  (39) 
0.0

>  <BSK_SAg_Proliferation_up>  (39) 
0.0

>  <BSK_SAg_SRB_down>  (39) 
0.0

>  <BSK_SAg_SRB_up>  (39) 
0.0

>  <BSK_hDFCGF_CollagenIII_down>  (39) 
0.0

>  <BSK_hDFCGF_CollagenIII_up>  (39) 
0.0

>  <BSK_hDFCGF_EGFR_down>  (39) 
0.0

>  <BSK_hDFCGF_EGFR_up>  (39) 
0.0

>  <BSK_hDFCGF_IL8_down>  (39) 
0.0

>  <BSK_hDFCGF_IL8_up>  (39) 
0.0

>  <BSK_hDFCGF_IP10_down>  (39) 
0.0

>  <BSK_hDFCGF_IP10_up>  (39) 
0.0

>  <BSK_hDFCGF_MCSF_down>  (39) 
0.0

>  <BSK_hDFCGF_MCSF_up>  (39) 
0.0

>  <BSK_hDFCGF_MIG_down>  (39) 
0.0

>  <BSK_hDFCGF_MIG_up>  (39) 
0.0

>  <BSK_hDFCGF_MMP1_down>  (39) 
0.0

>  <BSK_hDFCGF_MMP1_up>  (39) 
0.0

>  <BSK_hDFCGF_PAI1_down>  (39) 
0.0

>  <BSK_hDFCGF_PAI1_up>  (39) 
0.0

>  <BSK_hDFCGF_Proliferation_down>  (39) 
0.0

>  <BSK_hDFCGF_Proliferation_up>  (39) 
0.0

>  <BSK_hDFCGF_SRB_down>  (39) 
0.0

>  <BSK_hDFCGF_SRB_up>  (39) 
0.0

>  <BSK_hDFCGF_TIMP1_down>  (39) 
0.0

>  <BSK_hDFCGF_TIMP1_up>  (39) 
0.0

>  <BSK_hDFCGF_VCAM1_down>  (39) 
0.0

>  <BSK_hDFCGF_VCAM1_up>  (39) 
0.0

>  <CEETOX_H295R_11DCORT_noMTC_dn>  (39) 
0.0

>  <CEETOX_H295R_11DCORT_noMTC_up>  (39) 
0.0

>  <CEETOX_H295R_ANDR_noMTC_dn>  (39) 
0.0

>  <CEETOX_H295R_ANDR_noMTC_up>  (39) 
0.0

>  <CEETOX_H295R_CORTIC_noMTC_dn>  (39) 
0.0

>  <CEETOX_H295R_CORTIC_noMTC_up>  (39) 
0.0

>  <CEETOX_H295R_CORTISOL_noMTC_dn>  (39) 
0.0

>  <CEETOX_H295R_CORTISOL_noMTC_up>  (39) 
0.0

>  <CEETOX_H295R_DOC_noMTC_dn>  (39) 
0.0

>  <CEETOX_H295R_DOC_noMTC_up>  (39) 
0.0

>  <CEETOX_H295R_ESTRADIOL_noMTC_dn>  (39) 
0.0

>  <CEETOX_H295R_ESTRADIOL_noMTC_up>  (39) 
1.0

>  <CEETOX_H295R_ESTRONE_noMTC_dn>  (39) 
0.0

>  <CEETOX_H295R_ESTRONE_noMTC_up>  (39) 
1.0

>  <CEETOX_H295R_MTT_cell_viability_dn>  (39) 
0.0

>  <CEETOX_H295R_MTT_cell_viability_up>  (39) 
0.0

>  <CEETOX_H295R_OHPREG_noMTC_dn>  (39) 
0.0

>  <CEETOX_H295R_OHPREG_noMTC_up>  (39) 
0.0

>  <CEETOX_H295R_OHPROG_noMTC_dn>  (39) 
0.0

>  <CEETOX_H295R_OHPROG_noMTC_up>  (39) 
0.0

>  <CEETOX_H295R_PROG_noMTC_dn>  (39) 
0.0

>  <CEETOX_H295R_PROG_noMTC_up>  (39) 
0.0

>  <CEETOX_H295R_TESTO_noMTC_dn>  (39) 
0.0

>  <CEETOX_H295R_TESTO_noMTC_up>  (39) 
0.0

>  <NVS_ADME_hCYP3A4>  (39) 
0.0

>  <NVS_ADME_hCYP3A4_Activator>  (39) 
0.0

>  <NVS_ENZ_hGSK3b>  (39) 
0.0

>  <NVS_ENZ_hGSK3b_Activator>  (39) 
0.0

>  <NVS_ENZ_hPPP1CA>  (39) 
0.0

>  <NVS_ENZ_hPPP1CA_Activator>  (39) 
0.0

>  <NVS_ENZ_rMAOAC>  (39) 
1.0

>  <NVS_ENZ_rMAOAC_Activator>  (39) 
0.0

>  <NVS_ENZ_rMAOBP>  (39) 
1.0

>  <NVS_ENZ_rMAOBP_Activator>  (39) 
0.0

>  <NVS_GPCR_gMPeripheral_NonSelective>  (39) 
0.0

>  <NVS_GPCR_hNTS>  (39) 
0.0

>  <OT_AR_ARSRC1_0480>  (39) 
0.0

>  <OT_AR_ARSRC1_0960>  (39) 
0.0

>  <OT_ER_ERaERa_0480>  (39) 
0.0

>  <OT_ER_ERaERa_1440>  (39) 
0.0

>  <OT_ER_ERaERb_0480>  (39) 
0.0

>  <OT_ER_ERbERb_0480>  (39) 
0.0

>  <OT_ER_ERbERb_1440>  (39) 
0.0

>  <OT_ERa_EREGFP_0480>  (39) 
0.0

>  <TOX21_AP1_BLA_Agonist_ch1>  (39) 
0.0

>  <TOX21_AP1_BLA_Agonist_ch2>  (39) 
0.0

>  <TOX21_AP1_BLA_Agonist_ratio>  (39) 
0.0

>  <TOX21_AP1_BLA_Agonist_viability>  (39) 
0.0

>  <TOX21_ARE_BLA_Agonist_ch1>  (39) 
0.0

>  <TOX21_ARE_BLA_Agonist_ch2>  (39) 
0.0

>  <TOX21_ARE_BLA_agonist_viability>  (39) 
0.0

>  <TOX21_AR_BLA_Agonist_ch1>  (39) 
0.0

>  <TOX21_AR_BLA_Agonist_ch2>  (39) 
0.0

>  <TOX21_AR_BLA_Agonist_ratio>  (39) 
0.0

>  <TOX21_AR_BLA_Antagonist_ch1>  (39) 
0.0

>  <TOX21_AR_BLA_Antagonist_ch2>  (39) 
0.0

>  <TOX21_AR_BLA_Antagonist_ratio>  (39) 
0.0

>  <TOX21_AR_BLA_Antagonist_viability>  (39) 
0.0

>  <TOX21_AR_LUC_MDAKB2_Agonist>  (39) 
0.0

>  <TOX21_AR_LUC_MDAKB2_Agonist_3uM_Nilutamide>  (39) 
0.0

>  <TOX21_AR_LUC_MDAKB2_Agonist_3uM_Nilutamide_viability>  (39) 
0.0

>  <TOX21_AR_LUC_MDAKB2_Antagonist_0.5nM_R1881>  (39) 
0.0

>  <TOX21_AR_LUC_MDAKB2_Antagonist_0.5nM_R1881_viability>  (39) 
0.0

>  <TOX21_AR_LUC_MDAKB2_Antagonist_10nM_R1881>  (39) 
0.0

>  <TOX21_AR_LUC_MDAKB2_Antagonist_10nM_R1881_viability>  (39) 
0.0

>  <TOX21_AhR_LUC_Agonist>  (39) 
0.0

>  <TOX21_Aromatase_Inhibition>  (39) 
0.0

>  <TOX21_Aromatase_Inhibition_viability>  (39) 
0.0

>  <TOX21_AutoFluor_HEK293_Cell_blue>  (39) 
0.0

>  <TOX21_AutoFluor_HEK293_Cell_green>  (39) 
0.0

>  <TOX21_AutoFluor_HEK293_Cell_red>  (39) 
0.0

>  <TOX21_AutoFluor_HEK293_Media_blue>  (39) 
0.0

>  <TOX21_AutoFluor_HEK293_Media_green>  (39) 
0.0

>  <TOX21_AutoFluor_HEK293_Media_red>  (39) 
0.0

>  <TOX21_AutoFluor_HEPG2_Cell_blue>  (39) 
0.0

>  <TOX21_AutoFluor_HEPG2_Cell_green>  (39) 
0.0

>  <TOX21_AutoFluor_HEPG2_Cell_red>  (39) 
0.0

>  <TOX21_AutoFluor_HEPG2_Media_blue>  (39) 
0.0

>  <TOX21_AutoFluor_HEPG2_Media_green>  (39) 
0.0

>  <TOX21_AutoFluor_HEPG2_Media_red>  (39) 
0.0

>  <TOX21_CAR_Agonist>  (39) 
0.0

>  <TOX21_CAR_Antagonist>  (39) 
0.0

>  <TOX21_CAR_Antagonist_viability>  (39) 
0.0

>  <TOX21_CASP3_CHO>  (39) 
0.0

>  <TOX21_CASP3_CHO_viability>  (39) 
0.0

>  <TOX21_CASP3_HEPG2>  (39) 
0.0

>  <TOX21_CASP3_HEPG2_viability>  (39) 
0.0

>  <TOX21_DT40>  (39) 
0.0

>  <TOX21_DT40_100>  (39) 
0.0

>  <TOX21_DT40_657>  (39) 
0.0

>  <TOX21_ELG1_LUC_Agonist>  (39) 
0.0

>  <TOX21_ELG1_LUC_Agonist_viability>  (39) 
0.0

>  <TOX21_ERR_Agonist>  (39) 
0.0

>  <TOX21_ERR_Antagonist>  (39) 
0.0

>  <TOX21_ERa_BLA_Agonist_ch1>  (39) 
0.0

>  <TOX21_ERa_BLA_Agonist_ch2>  (39) 
0.0

>  <TOX21_ERa_BLA_Agonist_ratio>  (39) 
0.0

>  <TOX21_ERa_BLA_Antagonist_ch1>  (39) 
0.0

>  <TOX21_ERa_BLA_Antagonist_ch2>  (39) 
0.0

>  <TOX21_ERa_BLA_Antagonist_ratio>  (39) 
0.0

>  <TOX21_ERa_BLA_Antagonist_viability>  (39) 
0.0

>  <TOX21_ERa_LUC_VM7_Agonist>  (39) 
0.0

>  <TOX21_ERa_LUC_VM7_Agonist_10nM_ICI182780>  (39) 
0.0

>  <TOX21_ERa_LUC_VM7_Agonist_10nM_ICI182780_viability>  (39) 
0.0

>  <TOX21_ERa_LUC_VM7_Antagonist_0.1nM_E2>  (39) 
0.0

>  <TOX21_ERa_LUC_VM7_Antagonist_0.1nM_E2_viability>  (39) 
0.0

>  <TOX21_ERa_LUC_VM7_Antagonist_0.5nM_E2>  (39) 
0.0

>  <TOX21_ERa_LUC_VM7_Antagonist_0.5nM_E2_viability>  (39) 
0.0

>  <TOX21_ERb_BLA_Agonist_ch1>  (39) 
0.0

>  <TOX21_ERb_BLA_Agonist_ch2>  (39) 
0.0

>  <TOX21_ERb_BLA_Agonist_ratio>  (39) 
0.0

>  <TOX21_ERb_BLA_Agonist_viability>  (39) 
0.0

>  <TOX21_ERb_BLA_Antagonist_ch1>  (39) 
0.0

>  <TOX21_ERb_BLA_Antagonist_ch2>  (39) 
0.0

>  <TOX21_ERb_BLA_Antagonist_ratio>  (39) 
0.0

>  <TOX21_ERb_BLA_Antagonist_viability>  (39) 
0.0

>  <TOX21_ESRE_BLA_ch1>  (39) 
0.0

>  <TOX21_ESRE_BLA_ch2>  (39) 
0.0

>  <TOX21_ESRE_BLA_ratio>  (39) 
0.0

>  <TOX21_ESRE_BLA_viability>  (39) 
0.0

>  <TOX21_FXR_BLA_Antagonist_ch1>  (39) 
0.0

>  <TOX21_FXR_BLA_Antagonist_ch2>  (39) 
0.0

>  <TOX21_FXR_BLA_agonist_ch1>  (39) 
0.0

>  <TOX21_FXR_BLA_agonist_ch2>  (39) 
0.0

>  <TOX21_FXR_BLA_agonist_ratio>  (39) 
0.0

>  <TOX21_FXR_BLA_agonist_viability>  (39) 
0.0

>  <TOX21_FXR_BLA_antagonist_ratio>  (39) 
0.0

>  <TOX21_FXR_BLA_antagonist_viability>  (39) 
0.0

>  <TOX21_GR_BLA_Agonist_ch1>  (39) 
0.0

>  <TOX21_GR_BLA_Agonist_ch2>  (39) 
0.0

>  <TOX21_GR_BLA_Agonist_ratio>  (39) 
0.0

>  <TOX21_GR_BLA_Antagonist_ch1>  (39) 
0.0

>  <TOX21_GR_BLA_Antagonist_ch2>  (39) 
0.0

>  <TOX21_GR_BLA_Antagonist_ratio>  (39) 
0.0

>  <TOX21_GR_BLA_Antagonist_viability>  (39) 
0.0

>  <TOX21_H2AX_HTRF_CHO_Agonist_ch1>  (39) 
0.0

>  <TOX21_H2AX_HTRF_CHO_Agonist_ch2>  (39) 
0.0

>  <TOX21_H2AX_HTRF_CHO_Agonist_ratio>  (39) 
0.0

>  <TOX21_H2AX_HTRF_CHO_viability>  (39) 
0.0

>  <TOX21_HDAC_Inhibition>  (39) 
0.0

>  <TOX21_HDAC_Inhibition_viability>  (39) 
0.0

>  <TOX21_HRE_BLA_Agonist_ch1>  (39) 
0.0

>  <TOX21_HRE_BLA_Agonist_ch2>  (39) 
0.0

>  <TOX21_HRE_BLA_Agonist_ratio>  (39) 
0.0

>  <TOX21_HRE_BLA_Agonist_viability>  (39) 
0.0

>  <TOX21_HSE_BLA_agonist_ch1>  (39) 
0.0

>  <TOX21_HSE_BLA_agonist_ch2>  (39) 
0.0

>  <TOX21_HSE_BLA_agonist_ratio>  (39) 
0.0

>  <TOX21_HSE_BLA_agonist_viability>  (39) 
0.0

>  <TOX21_LUC_Biochem>  (39) 
0.0

>  <TOX21_MMP_fitc>  (39) 
0.0

>  <TOX21_MMP_ratio_down>  (39) 
0.0

>  <TOX21_MMP_ratio_up>  (39) 
0.0

>  <TOX21_MMP_rhodamine>  (39) 
0.0

>  <TOX21_MMP_viability>  (39) 
0.0

>  <TOX21_NFkB_BLA_agonist_ch1>  (39) 
0.0

>  <TOX21_NFkB_BLA_agonist_ch2>  (39) 
0.0

>  <TOX21_NFkB_BLA_agonist_ratio>  (39) 
0.0

>  <TOX21_NFkB_BLA_agonist_viability>  (39) 
0.0

>  <TOX21_PGC_ERR_Agonist>  (39) 
0.0

>  <TOX21_PGC_ERR_Antagonist>  (39) 
0.0

>  <TOX21_PGC_ERR_viability>  (39) 
0.0

>  <TOX21_PPARd_BLA_Agonist_viability>  (39) 
0.0

>  <TOX21_PPARd_BLA_Antagonist_ch1>  (39) 
0.0

>  <TOX21_PPARd_BLA_Antagonist_ch2>  (39) 
0.0

>  <TOX21_PPARd_BLA_agonist_ch1>  (39) 
0.0

>  <TOX21_PPARd_BLA_agonist_ch2>  (39) 
0.0

>  <TOX21_PPARd_BLA_agonist_ratio>  (39) 
0.0

>  <TOX21_PPARd_BLA_antagonist_ratio>  (39) 
0.0

>  <TOX21_PPARd_BLA_antagonist_viability>  (39) 
0.0

>  <TOX21_PPARg_BLA_Agonist_ch1>  (39) 
0.0

>  <TOX21_PPARg_BLA_Agonist_ch2>  (39) 
0.0

>  <TOX21_PPARg_BLA_Agonist_ratio>  (39) 
0.0

>  <TOX21_PPARg_BLA_Antagonist_ch1>  (39) 
0.0

>  <TOX21_PPARg_BLA_Antagonist_ch2>  (39) 
0.0

>  <TOX21_PPARg_BLA_antagonist_ratio>  (39) 
0.0

>  <TOX21_PPARg_BLA_antagonist_viability>  (39) 
0.0

>  <TOX21_PR_BLA_Agonist_ch1>  (39) 
0.0

>  <TOX21_PR_BLA_Agonist_ch2>  (39) 
0.0

>  <TOX21_PR_BLA_Agonist_ratio>  (39) 
0.0

>  <TOX21_PR_BLA_Antagonist_ch1>  (39) 
0.0

>  <TOX21_PR_BLA_Antagonist_ch2>  (39) 
0.0

>  <TOX21_PR_BLA_Antagonist_ratio>  (39) 
0.0

>  <TOX21_PR_BLA_Antagonist_viability>  (39) 
0.0

>  <TOX21_PXR_Agonist>  (39) 
0.0

>  <TOX21_PXR_viability>  (39) 
0.0

>  <TOX21_RAR_LUC_Agonist>  (39) 
0.0

>  <TOX21_RAR_LUC_Agonist_viability>  (39) 
0.0

>  <TOX21_RAR_LUC_Antagonist_viability>  (39) 
0.0

>  <TOX21_RORg_LUC_CHO_Antagonist>  (39) 
0.0

>  <TOX21_RORg_LUC_CHO_Antagonist_viability>  (39) 
0.0

>  <TOX21_RT_HEK293_FLO_00hr_viability>  (39) 
0.0

>  <TOX21_RT_HEK293_FLO_08hr_viability>  (39) 
1.0

>  <TOX21_RT_HEK293_FLO_16hr_viability>  (39) 
1.0

>  <TOX21_RT_HEK293_FLO_24hr_viability>  (39) 
1.0

>  <TOX21_RT_HEK293_FLO_32hr_viability>  (39) 
1.0

>  <TOX21_RT_HEK293_FLO_40hr_viability>  (39) 
1.0

>  <TOX21_RT_HEK293_GLO_00hr_viability>  (39) 
0.0

>  <TOX21_RT_HEK293_GLO_08hr_viability>  (39) 
0.0

>  <TOX21_RT_HEK293_GLO_16hr_viability>  (39) 
0.0

>  <TOX21_RT_HEK293_GLO_24hr_viability>  (39) 
0.0

>  <TOX21_RT_HEK293_GLO_32hr_viability>  (39) 
0.0

>  <TOX21_RT_HEK293_GLO_40hr_viability>  (39) 
0.0

>  <TOX21_RT_HEPG2_FLO_00hr_ctrl_viability>  (39) 
0.0

>  <TOX21_RT_HEPG2_FLO_08hr_viability>  (39) 
0.0

>  <TOX21_RT_HEPG2_FLO_16hr_ctrl_viability>  (39) 
0.0

>  <TOX21_RT_HEPG2_FLO_24hr_viability>  (39) 
0.0

>  <TOX21_RT_HEPG2_FLO_32hr_ctrl_viability>  (39) 
0.0

>  <TOX21_RT_HEPG2_GLO_00hr_ctrl_viability>  (39) 
0.0

>  <TOX21_RT_HEPG2_GLO_08hr_ctrl_viability>  (39) 
0.0

>  <TOX21_RT_HEPG2_GLO_16hr_ctrl_viability>  (39) 
0.0

>  <TOX21_RT_HEPG2_GLO_24hr_ctrl_viability>  (39) 
0.0

>  <TOX21_RT_HEPG2_GLO_32hr_ctrl_viability>  (39) 
0.0

>  <TOX21_RT_HEPG2_GLO_40hr_viability>  (39) 
0.0

>  <TOX21_RXR_BLA_Agonist_ch1>  (39) 
0.0

>  <TOX21_RXR_BLA_Agonist_ch2>  (39) 
0.0

>  <TOX21_RXR_BLA_Agonist_ratio>  (39) 
0.0

>  <TOX21_RXR_BLA_Agonist_viability>  (39) 
0.0

>  <TOX21_SBE_BLA_Agonist_ch1>  (39) 
0.0

>  <TOX21_SBE_BLA_Agonist_ch2>  (39) 
0.0

>  <TOX21_SBE_BLA_Agonist_ratio>  (39) 
0.0

>  <TOX21_SBE_BLA_Agonist_viability>  (39) 
0.0

>  <TOX21_SBE_BLA_Antagonist_ch1>  (39) 
0.0

>  <TOX21_SBE_BLA_Antagonist_ch2>  (39) 
0.0

>  <TOX21_SBE_BLA_Antagonist_ratio>  (39) 
0.0

>  <TOX21_SBE_BLA_Antagonist_viability>  (39) 
0.0

>  <TOX21_SSH_3T3_GLI3_Agonist>  (39) 
0.0

>  <TOX21_SSH_3T3_GLI3_Agonist_viability>  (39) 
0.0

>  <TOX21_SSH_3T3_GLI3_Antagonist>  (39) 
0.0

>  <TOX21_SSH_3T3_GLI3_Antagonist_viability>  (39) 
0.0

>  <TOX21_TRHR_HEK293_Agonist>  (39) 
0.0

>  <TOX21_TRHR_HEK293_Antagonist>  (39) 
0.0

>  <TOX21_TR_LUC_GH3_Agonist>  (39) 
0.0

>  <TOX21_TR_LUC_GH3_Antagonist>  (39) 
0.0

>  <TOX21_TR_LUC_GH3_Antagonist_viability>  (39) 
0.0

>  <TOX21_TSHR_Agonist_ch2>  (39) 
0.0

>  <TOX21_TSHR_Antagonist_ch2>  (39) 
0.0

>  <TOX21_TSHR_Antagonist_ratio>  (39) 
0.0

>  <TOX21_TSHR_HTRF_Agonist_ch1>  (39) 
0.0

>  <TOX21_TSHR_HTRF_Antagonist_ch1>  (39) 
0.0

>  <TOX21_TSHR_wt_HTRF_ch1>  (39) 
0.0

>  <TOX21_TSHR_wt_ch2>  (39) 
0.0

>  <TOX21_TSHR_wt_ratio>  (39) 
0.0

>  <TOX21_VDR_BLA_Agonist_viability>  (39) 
0.0

>  <TOX21_VDR_BLA_Antagonist_ch1>  (39) 
0.0

>  <TOX21_VDR_BLA_Antagonist_ch2>  (39) 
0.0

>  <TOX21_VDR_BLA_agonist_ch1>  (39) 
0.0

>  <TOX21_VDR_BLA_agonist_ch2>  (39) 
0.0

>  <TOX21_VDR_BLA_agonist_ratio>  (39) 
0.0

>  <TOX21_VDR_BLA_antagonist_ratio>  (39) 
0.0

>  <TOX21_VDR_BLA_antagonist_viability>  (39) 
0.0

>  <TOX21_p53_BLA_p1_ch1>  (39) 
0.0

>  <TOX21_p53_BLA_p1_ch2>  (39) 
0.0

>  <TOX21_p53_BLA_p1_ratio>  (39) 
0.0

>  <TOX21_p53_BLA_p1_viability>  (39) 
0.0

>  <TOX21_p53_BLA_p2_ch1>  (39) 
0.0

>  <TOX21_p53_BLA_p2_ch2>  (39) 
0.0

>  <TOX21_p53_BLA_p2_ratio>  (39) 
0.0

>  <TOX21_p53_BLA_p2_viability>  (39) 
0.0

>  <TOX21_p53_BLA_p3_ch1>  (39) 
0.0

>  <TOX21_p53_BLA_p3_ch2>  (39) 
0.0

>  <TOX21_p53_BLA_p3_ratio>  (39) 
0.0

>  <TOX21_p53_BLA_p4_ch1>  (39) 
0.0

>  <TOX21_p53_BLA_p4_ch2>  (39) 
0.0

>  <TOX21_p53_BLA_p4_ratio>  (39) 
0.0

>  <TOX21_p53_BLA_p4_viability>  (39) 
0.0

>  <TOX21_p53_BLA_p5_ch1>  (39) 
0.0

>  <TOX21_p53_BLA_p5_ch2>  (39) 
0.0

>  <TOX21_p53_BLA_p5_ratio>  (39) 
0.0

>  <TOX21_p53_BLA_p5_viability>  (39) 
0.0

>  <Tanguay_ZF_120hpf_AXIS_up>  (39) 
0.0

>  <Tanguay_ZF_120hpf_ActivityScore>  (39) 
0.0

>  <Tanguay_ZF_120hpf_BRAI_up>  (39) 
0.0

>  <Tanguay_ZF_120hpf_CFIN_up>  (39) 
0.0

>  <Tanguay_ZF_120hpf_CIRC_up>  (39) 
0.0

>  <Tanguay_ZF_120hpf_EYE_up>  (39) 
0.0

>  <Tanguay_ZF_120hpf_JAW_up>  (39) 
0.0

>  <Tanguay_ZF_120hpf_MORT_up>  (39) 
0.0

>  <Tanguay_ZF_120hpf_NC_up>  (39) 
0.0

>  <Tanguay_ZF_120hpf_OTIC_up>  (39) 
0.0

>  <Tanguay_ZF_120hpf_PE_up>  (39) 
0.0

>  <Tanguay_ZF_120hpf_PFIN_up>  (39) 
0.0

>  <Tanguay_ZF_120hpf_PIG_up>  (39) 
0.0

>  <Tanguay_ZF_120hpf_SNOU_up>  (39) 
0.0

>  <Tanguay_ZF_120hpf_SOMI_up>  (39) 
0.0

>  <Tanguay_ZF_120hpf_SWIM_up>  (39) 
0.0

>  <Tanguay_ZF_120hpf_TRUN_up>  (39) 
0.0

>  <Tanguay_ZF_120hpf_TR_up>  (39) 
0.0

>  <Tanguay_ZF_120hpf_YSE_up>  (39) 
0.0

>  <UPITT_HCI_U2OS_AR_TIF2_Nucleoli_Agonist>  (39) 
0.0

>  <UPITT_HCI_U2OS_AR_TIF2_Nucleoli_Antagonist>  (39) 
0.0

>  <UPITT_HCI_U2OS_AR_TIF2_Nucleoli_Cytoplasm_Ratio_Agonist>  (39) 
0.0

>  <UPITT_HCI_U2OS_AR_TIF2_Nucleoli_Cytoplasm_Ratio_Antagonist>  (39) 
0.0

>  <NVS_NR_mERa>  (39) 
0.0

$$$$

     RDKit          3D

 12 12  0  0  0  0  0  0  0  0999 V2000
    0.0000    0.0000    0.0000 C   0  0  0  0  0  0  0  0  0  0  0  0
    0.0000    0.0000    0.0000 C   0  0  0  0  0  0  0  0  0  0  0  0
    0.0000    0.0000    0.0000 C   0  0  0  0  0  0  0  0  0  0  0  0
    0.0000    0.0000    0.0000 C   0  0  0  0  0  0  0  0  0  0  0  0
    0.0000    0.0000    0.0000 C   0  0  0  0  0  0  0  0  0  0  0  0
    0.0000    0.0000    0.0000 C   0  0  0  0  0  0  0  0  0  0  0  0
    0.0000    0.0000    0.0000 Cl  0  0  0  0  0  0  0  0  0  0  0  0
    0.0000    0.0000    0.0000 Cl  0  0  0  0  0  0  0  0  0  0  0  0
    0.0000    0.0000    0.0000 Cl  0  0  0  0  0  0  0  0  0  0  0  0
    0.0000    0.0000    0.0000 Cl  0  0  0  0  0  0  0  0  0  0  0  0
    0.0000    0.0000    0.0000 Cl  0  0  0  0  0  0  0  0  0  0  0  0
    0.0000    0.0000    0.0000 O   0  0  0  0  0  0  0  0  0  0  0  0
  1  2  2  0
  2  3  1  0
  3  4  2  0
  4  5  1  0
  5  6  2  0
  6  7  1  0
  5  8  1  0
  4  9  1  0
  3 10  1  0
  2 11  1  0
  1 12  1  0
  6  1  1  0
M  END
>  <CASRN>  (40) 
87-86-5

>  <Name>  (40) 
Pentachlorophenol

>  <Active>  (40) 
0

>  <Inactive>  (40) 
2

>  <Bioactivity>  (40) 
Inactive

>  <Min LEL>  (40) 
nan

>  <Max HDT>  (40) 
1000.0

>  <Class>  (40) 
0

>  <Code>  (40) 
C87865

>  <NVS_NR_hER>  (40) 
0.0

>  <NVS_NR_hAR>  (40) 
0.0

>  <NVS_NR_hGR>  (40) 
0.0

>  <NVS_NR_rAR>  (40) 
0.0

>  <OT_ER_ERaERb_1440>  (40) 
0.0

>  <OT_FXR_FXRSRC1_0480>  (40) 
0.0

>  <OT_PPARg_PPARgSRC1_1440>  (40) 
0.0

>  <OT_FXR_FXRSRC1_1440>  (40) 
0.0

>  <OT_NURR1_NURR1RXRa_0480>  (40) 
0.0

>  <OT_NURR1_NURR1RXRa_1440>  (40) 
0.0

>  <OT_PPARg_PPARgSRC1_0480>  (40) 
0.0

>  <OT_AR_ARELUC_AG_1440>  (40) 
0.0

>  <OT_ERa_EREGFP_0120>  (40) 
0.0

>  <BSK_3C_HLADR_down>  (40) 
1.0

>  <BSK_3C_Vis_down>  (40) 
0.0

>  <BSK_3C_uPAR_down>  (40) 
1.0

>  <ATG_CAR_TRANS_up>  (40) 
0.0

>  <ATG_E2F_CIS_dn>  (40) 
1.0

>  <ATG_EGR_CIS_up>  (40) 
1.0

>  <ATG_ERa_TRANS_dn>  (40) 
0.0

>  <ATG_ERa_TRANS_up>  (40) 
1.0

>  <ATG_FXR_TRANS_dn>  (40) 
0.0

>  <ATG_GLI_CIS_dn>  (40) 
0.0

>  <ATG_GRE_CIS_up>  (40) 
0.0

>  <ATG_LXRa_TRANS_dn>  (40) 
0.0

>  <ATG_LXRa_TRANS_up>  (40) 
0.0

>  <ATG_NRF1_CIS_up>  (40) 
0.0

>  <ATG_NURR1_TRANS_up>  (40) 
0.0

>  <ATG_Sox_CIS_dn>  (40) 
0.0

>  <ATG_Sox_CIS_up>  (40) 
1.0

>  <ATG_Sp1_CIS_up>  (40) 
1.0

>  <ATG_TGFb_CIS_up>  (40) 
1.0

>  <TOX21_ARE_BLA_agonist_ratio>  (40) 
1.0

>  <TOX21_RAR_LUC_Antagonist>  (40) 
0.0

>  <ATG_LXRb_TRANS_dn>  (40) 
0.0

>  <ATG_CAR_TRANS_dn>  (40) 
0.0

>  <ATG_BRE_CIS_dn>  (40) 
0.0

>  <ATG_E2F_CIS_up>  (40) 
0.0

>  <TOX21_TSHR_Agonist_ratio>  (40) 
0.0

>  <ACEA_ER_80hr>  (40) 
0.0

>  <TOX21_CAR_Agonist_viabillity>  (40) 
1.0

>  <TOX21_PR_BLA_Agonist_viability>  (40) 
1.0

>  <TOX21_RT_HEPG2_FLO_40hr_ctrl_viability>  (40) 
0.0

>  <TOX21_AhR_LUC_Agonist_viability>  (40) 
0.0

>  <TOX21_ERR_viability>  (40) 
1.0

>  <TOX21_p53_BLA_p3_viability>  (40) 
0.0

>  <NVS_NR_cAR>  (40) 
1.0

>  <NVS_NR_hPR>  (40) 
0.0

>  <NVS_NR_bER>  (40) 
0.0

>  <ACEA_AR_agonist_80hr>  (40) 
0.0

>  <ACEA_AR_agonist_AUC_viability>  (40) 
1.0

>  <ACEA_AR_antagonist_80hr>  (40) 
1.0

>  <ACEA_AR_antagonist_AUC_viability>  (40) 
1.0

>  <ACEA_ER_AUC_viability>  (40) 
0.0

>  <APR_HepG2_CellCycleArrest_24h_dn>  (40) 
1.0

>  <APR_HepG2_CellCycleArrest_24h_up>  (40) 
0.0

>  <APR_HepG2_CellCycleArrest_72h_dn>  (40) 
1.0

>  <APR_HepG2_CellCycleArrest_72h_up>  (40) 
0.0

>  <APR_HepG2_CellLoss_24h_dn>  (40) 
1.0

>  <APR_HepG2_CellLoss_24h_up>  (40) 
0.0

>  <APR_HepG2_CellLoss_72h_dn>  (40) 
1.0

>  <APR_HepG2_CellLoss_72h_up>  (40) 
0.0

>  <APR_HepG2_MicrotubuleCSK_24h_dn>  (40) 
0.0

>  <APR_HepG2_MicrotubuleCSK_24h_up>  (40) 
0.0

>  <APR_HepG2_MicrotubuleCSK_72h_dn>  (40) 
0.0

>  <APR_HepG2_MicrotubuleCSK_72h_up>  (40) 
0.0

>  <APR_HepG2_MitoMass_24h_dn>  (40) 
0.0

>  <APR_HepG2_MitoMass_24h_up>  (40) 
0.0

>  <APR_HepG2_MitoMass_72h_dn>  (40) 
0.0

>  <APR_HepG2_MitoMass_72h_up>  (40) 
0.0

>  <APR_HepG2_MitoMembPot_24h_dn>  (40) 
0.0

>  <APR_HepG2_MitoMembPot_24h_up>  (40) 
0.0

>  <APR_HepG2_MitoMembPot_72h_dn>  (40) 
0.0

>  <APR_HepG2_MitoMembPot_72h_up>  (40) 
0.0

>  <APR_HepG2_MitoticArrest_24h_dn>  (40) 
0.0

>  <APR_HepG2_MitoticArrest_24h_up>  (40) 
0.0

>  <APR_HepG2_MitoticArrest_72h_dn>  (40) 
0.0

>  <APR_HepG2_MitoticArrest_72h_up>  (40) 
0.0

>  <APR_HepG2_NuclearSize_24h_dn>  (40) 
0.0

>  <APR_HepG2_NuclearSize_24h_up>  (40) 
0.0

>  <APR_HepG2_NuclearSize_72h_dn>  (40) 
0.0

>  <APR_HepG2_NuclearSize_72h_up>  (40) 
0.0

>  <APR_HepG2_OxidativeStress_24h_dn>  (40) 
0.0

>  <APR_HepG2_OxidativeStress_24h_up>  (40) 
0.0

>  <APR_HepG2_OxidativeStress_72h_dn>  (40) 
0.0

>  <APR_HepG2_OxidativeStress_72h_up>  (40) 
0.0

>  <APR_HepG2_StressKinase_24h_dn>  (40) 
0.0

>  <APR_HepG2_StressKinase_24h_up>  (40) 
0.0

>  <APR_HepG2_StressKinase_72h_dn>  (40) 
0.0

>  <APR_HepG2_StressKinase_72h_up>  (40) 
0.0

>  <APR_HepG2_p53Act_24h_dn>  (40) 
0.0

>  <APR_HepG2_p53Act_24h_up>  (40) 
0.0

>  <APR_HepG2_p53Act_72h_dn>  (40) 
0.0

>  <APR_HepG2_p53Act_72h_up>  (40) 
0.0

>  <ATG_AP_1_CIS_dn>  (40) 
0.0

>  <ATG_AP_1_CIS_up>  (40) 
1.0

>  <ATG_AP_2_CIS_dn>  (40) 
1.0

>  <ATG_AP_2_CIS_up>  (40) 
0.0

>  <ATG_AR_TRANS_dn>  (40) 
0.0

>  <ATG_AR_TRANS_up>  (40) 
0.0

>  <ATG_Ahr_CIS_dn>  (40) 
0.0

>  <ATG_Ahr_CIS_up>  (40) 
1.0

>  <ATG_BRE_CIS_up>  (40) 
1.0

>  <ATG_CMV_CIS_dn>  (40) 
0.0

>  <ATG_CMV_CIS_up>  (40) 
1.0

>  <ATG_CRE_CIS_dn>  (40) 
0.0

>  <ATG_CRE_CIS_up>  (40) 
1.0

>  <ATG_C_EBP_CIS_dn>  (40) 
0.0

>  <ATG_C_EBP_CIS_up>  (40) 
1.0

>  <ATG_DR4_LXR_CIS_dn>  (40) 
1.0

>  <ATG_DR4_LXR_CIS_up>  (40) 
0.0

>  <ATG_DR5_CIS_dn>  (40) 
0.0

>  <ATG_DR5_CIS_up>  (40) 
1.0

>  <ATG_EGR_CIS_dn>  (40) 
0.0

>  <ATG_ERE_CIS_dn>  (40) 
0.0

>  <ATG_ERE_CIS_up>  (40) 
1.0

>  <ATG_ERRa_TRANS_dn>  (40) 
0.0

>  <ATG_ERRa_TRANS_up>  (40) 
0.0

>  <ATG_ERRg_TRANS_dn>  (40) 
0.0

>  <ATG_ERRg_TRANS_up>  (40) 
0.0

>  <ATG_E_Box_CIS_dn>  (40) 
0.0

>  <ATG_E_Box_CIS_up>  (40) 
1.0

>  <ATG_Ets_CIS_dn>  (40) 
1.0

>  <ATG_Ets_CIS_up>  (40) 
0.0

>  <ATG_FXR_TRANS_up>  (40) 
1.0

>  <ATG_FoxA2_CIS_dn>  (40) 
0.0

>  <ATG_FoxA2_CIS_up>  (40) 
0.0

>  <ATG_FoxO_CIS_dn>  (40) 
1.0

>  <ATG_FoxO_CIS_up>  (40) 
0.0

>  <ATG_GAL4_TRANS_dn>  (40) 
0.0

>  <ATG_GAL4_TRANS_up>  (40) 
0.0

>  <ATG_GATA_CIS_dn>  (40) 
0.0

>  <ATG_GATA_CIS_up>  (40) 
0.0

>  <ATG_GLI_CIS_up>  (40) 
1.0

>  <ATG_GRE_CIS_dn>  (40) 
0.0

>  <ATG_GR_TRANS_dn>  (40) 
0.0

>  <ATG_GR_TRANS_up>  (40) 
0.0

>  <ATG_HIF1a_CIS_dn>  (40) 
0.0

>  <ATG_HIF1a_CIS_up>  (40) 
1.0

>  <ATG_HNF4a_TRANS_dn>  (40) 
0.0

>  <ATG_HNF4a_TRANS_up>  (40) 
0.0

>  <ATG_HNF6_CIS_dn>  (40) 
0.0

>  <ATG_HNF6_CIS_up>  (40) 
1.0

>  <ATG_HSE_CIS_dn>  (40) 
0.0

>  <ATG_HSE_CIS_up>  (40) 
1.0

>  <ATG_IR1_CIS_dn>  (40) 
0.0

>  <ATG_IR1_CIS_up>  (40) 
0.0

>  <ATG_ISRE_CIS_dn>  (40) 
1.0

>  <ATG_ISRE_CIS_up>  (40) 
0.0

>  <ATG_LXRb_TRANS_up>  (40) 
0.0

>  <ATG_MRE_CIS_dn>  (40) 
0.0

>  <ATG_MRE_CIS_up>  (40) 
1.0

>  <ATG_M_06_CIS_dn>  (40) 
0.0

>  <ATG_M_06_CIS_up>  (40) 
0.0

>  <ATG_M_06_TRANS_dn>  (40) 
0.0

>  <ATG_M_06_TRANS_up>  (40) 
0.0

>  <ATG_M_19_CIS_dn>  (40) 
0.0

>  <ATG_M_19_CIS_up>  (40) 
0.0

>  <ATG_M_19_TRANS_dn>  (40) 
0.0

>  <ATG_M_19_TRANS_up>  (40) 
0.0

>  <ATG_M_32_CIS_dn>  (40) 
0.0

>  <ATG_M_32_CIS_up>  (40) 
0.0

>  <ATG_M_32_TRANS_dn>  (40) 
0.0

>  <ATG_M_32_TRANS_up>  (40) 
0.0

>  <ATG_M_61_CIS_dn>  (40) 
0.0

>  <ATG_M_61_CIS_up>  (40) 
0.0

>  <ATG_M_61_TRANS_dn>  (40) 
0.0

>  <ATG_M_61_TRANS_up>  (40) 
0.0

>  <ATG_Myb_CIS_dn>  (40) 
0.0

>  <ATG_Myb_CIS_up>  (40) 
0.0

>  <ATG_Myc_CIS_dn>  (40) 
0.0

>  <ATG_Myc_CIS_up>  (40) 
1.0

>  <ATG_NFI_CIS_dn>  (40) 
0.0

>  <ATG_NFI_CIS_up>  (40) 
1.0

>  <ATG_NF_kB_CIS_dn>  (40) 
0.0

>  <ATG_NF_kB_CIS_up>  (40) 
1.0

>  <ATG_NRF1_CIS_dn>  (40) 
1.0

>  <ATG_NRF2_ARE_CIS_dn>  (40) 
0.0

>  <ATG_NRF2_ARE_CIS_up>  (40) 
1.0

>  <ATG_NURR1_TRANS_dn>  (40) 
0.0

>  <ATG_Oct_MLP_CIS_dn>  (40) 
0.0

>  <ATG_Oct_MLP_CIS_up>  (40) 
1.0

>  <ATG_PBREM_CIS_dn>  (40) 
0.0

>  <ATG_PBREM_CIS_up>  (40) 
1.0

>  <ATG_PPARa_TRANS_dn>  (40) 
0.0

>  <ATG_PPARa_TRANS_up>  (40) 
1.0

>  <ATG_PPARd_TRANS_dn>  (40) 
0.0

>  <ATG_PPARd_TRANS_up>  (40) 
1.0

>  <ATG_PPARg_TRANS_dn>  (40) 
0.0

>  <ATG_PPARg_TRANS_up>  (40) 
1.0

>  <ATG_PPRE_CIS_dn>  (40) 
0.0

>  <ATG_PPRE_CIS_up>  (40) 
1.0

>  <ATG_PXRE_CIS_dn>  (40) 
0.0

>  <ATG_PXRE_CIS_up>  (40) 
1.0

>  <ATG_PXR_TRANS_dn>  (40) 
0.0

>  <ATG_PXR_TRANS_up>  (40) 
1.0

>  <ATG_Pax6_CIS_dn>  (40) 
0.0

>  <ATG_Pax6_CIS_up>  (40) 
1.0

>  <ATG_RARa_TRANS_dn>  (40) 
0.0

>  <ATG_RARa_TRANS_up>  (40) 
0.0

>  <ATG_RARb_TRANS_dn>  (40) 
0.0

>  <ATG_RARb_TRANS_up>  (40) 
0.0

>  <ATG_RARg_TRANS_dn>  (40) 
0.0

>  <ATG_RARg_TRANS_up>  (40) 
1.0

>  <ATG_RORE_CIS_dn>  (40) 
0.0

>  <ATG_RORE_CIS_up>  (40) 
1.0

>  <ATG_RORb_TRANS_dn>  (40) 
0.0

>  <ATG_RORb_TRANS_up>  (40) 
0.0

>  <ATG_RORg_TRANS_dn>  (40) 
0.0

>  <ATG_RORg_TRANS_up>  (40) 
0.0

>  <ATG_RXRa_TRANS_dn>  (40) 
0.0

>  <ATG_RXRa_TRANS_up>  (40) 
0.0

>  <ATG_RXRb_TRANS_dn>  (40) 
0.0

>  <ATG_RXRb_TRANS_up>  (40) 
0.0

>  <ATG_SREBP_CIS_dn>  (40) 
0.0

>  <ATG_SREBP_CIS_up>  (40) 
1.0

>  <ATG_STAT3_CIS_dn>  (40) 
1.0

>  <ATG_STAT3_CIS_up>  (40) 
0.0

>  <ATG_Sp1_CIS_dn>  (40) 
0.0

>  <ATG_TAL_CIS_dn>  (40) 
0.0

>  <ATG_TAL_CIS_up>  (40) 
1.0

>  <ATG_TA_CIS_dn>  (40) 
0.0

>  <ATG_TA_CIS_up>  (40) 
1.0

>  <ATG_TCF_b_cat_CIS_dn>  (40) 
1.0

>  <ATG_TCF_b_cat_CIS_up>  (40) 
0.0

>  <ATG_TGFb_CIS_dn>  (40) 
0.0

>  <ATG_THRa1_TRANS_dn>  (40) 
0.0

>  <ATG_THRa1_TRANS_up>  (40) 
0.0

>  <ATG_VDRE_CIS_dn>  (40) 
0.0

>  <ATG_VDRE_CIS_up>  (40) 
1.0

>  <ATG_VDR_TRANS_dn>  (40) 
0.0

>  <ATG_VDR_TRANS_up>  (40) 
1.0

>  <ATG_XTT_Cytotoxicity_up>  (40) 
0.0

>  <ATG_Xbp1_CIS_dn>  (40) 
0.0

>  <ATG_Xbp1_CIS_up>  (40) 
1.0

>  <ATG_p53_CIS_dn>  (40) 
0.0

>  <ATG_p53_CIS_up>  (40) 
1.0

>  <BSK_3C_Eselectin_down>  (40) 
1.0

>  <BSK_3C_Eselectin_up>  (40) 
0.0

>  <BSK_3C_HLADR_up>  (40) 
0.0

>  <BSK_3C_ICAM1_down>  (40) 
0.0

>  <BSK_3C_ICAM1_up>  (40) 
0.0

>  <BSK_3C_IL8_down>  (40) 
0.0

>  <BSK_3C_IL8_up>  (40) 
0.0

>  <BSK_3C_MCP1_down>  (40) 
1.0

>  <BSK_3C_MCP1_up>  (40) 
0.0

>  <BSK_3C_MIG_down>  (40) 
0.0

>  <BSK_3C_MIG_up>  (40) 
0.0

>  <BSK_3C_Proliferation_down>  (40) 
1.0

>  <BSK_3C_Proliferation_up>  (40) 
0.0

>  <BSK_3C_SRB_down>  (40) 
1.0

>  <BSK_3C_SRB_up>  (40) 
0.0

>  <BSK_3C_Thrombomodulin_down>  (40) 
0.0

>  <BSK_3C_Thrombomodulin_up>  (40) 
0.0

>  <BSK_3C_TissueFactor_down>  (40) 
0.0

>  <BSK_3C_TissueFactor_up>  (40) 
0.0

>  <BSK_3C_VCAM1_down>  (40) 
1.0

>  <BSK_3C_VCAM1_up>  (40) 
0.0

>  <BSK_3C_Vis_up>  (40) 
0.0

>  <BSK_3C_uPAR_up>  (40) 
0.0

>  <BSK_4H_Eotaxin3_down>  (40) 
1.0

>  <BSK_4H_Eotaxin3_up>  (40) 
0.0

>  <BSK_4H_MCP1_down>  (40) 
0.0

>  <BSK_4H_MCP1_up>  (40) 
0.0

>  <BSK_4H_Pselectin_down>  (40) 
1.0

>  <BSK_4H_Pselectin_up>  (40) 
0.0

>  <BSK_4H_SRB_down>  (40) 
1.0

>  <BSK_4H_SRB_up>  (40) 
0.0

>  <BSK_4H_VCAM1_down>  (40) 
1.0

>  <BSK_4H_VCAM1_up>  (40) 
0.0

>  <BSK_4H_VEGFRII_down>  (40) 
0.0

>  <BSK_4H_VEGFRII_up>  (40) 
0.0

>  <BSK_4H_uPAR_down>  (40) 
1.0

>  <BSK_4H_uPAR_up>  (40) 
0.0

>  <BSK_BE3C_HLADR_down>  (40) 
1.0

>  <BSK_BE3C_HLADR_up>  (40) 
0.0

>  <BSK_BE3C_IL1a_down>  (40) 
1.0

>  <BSK_BE3C_IL1a_up>  (40) 
0.0

>  <BSK_BE3C_IP10_down>  (40) 
1.0

>  <BSK_BE3C_IP10_up>  (40) 
0.0

>  <BSK_BE3C_MIG_down>  (40) 
1.0

>  <BSK_BE3C_MIG_up>  (40) 
0.0

>  <BSK_BE3C_MMP1_down>  (40) 
0.0

>  <BSK_BE3C_MMP1_up>  (40) 
0.0

>  <BSK_BE3C_PAI1_down>  (40) 
1.0

>  <BSK_BE3C_PAI1_up>  (40) 
0.0

>  <BSK_BE3C_SRB_down>  (40) 
1.0

>  <BSK_BE3C_SRB_up>  (40) 
0.0

>  <BSK_BE3C_TGFb1_down>  (40) 
0.0

>  <BSK_BE3C_TGFb1_up>  (40) 
0.0

>  <BSK_BE3C_tPA_down>  (40) 
1.0

>  <BSK_BE3C_tPA_up>  (40) 
0.0

>  <BSK_BE3C_uPAR_down>  (40) 
1.0

>  <BSK_BE3C_uPAR_up>  (40) 
0.0

>  <BSK_BE3C_uPA_down>  (40) 
1.0

>  <BSK_BE3C_uPA_up>  (40) 
0.0

>  <BSK_CASM3C_HLADR_down>  (40) 
0.0

>  <BSK_CASM3C_HLADR_up>  (40) 
0.0

>  <BSK_CASM3C_IL6_down>  (40) 
0.0

>  <BSK_CASM3C_IL6_up>  (40) 
0.0

>  <BSK_CASM3C_IL8_down>  (40) 
0.0

>  <BSK_CASM3C_IL8_up>  (40) 
0.0

>  <BSK_CASM3C_LDLR_down>  (40) 
0.0

>  <BSK_CASM3C_LDLR_up>  (40) 
0.0

>  <BSK_CASM3C_MCP1_down>  (40) 
0.0

>  <BSK_CASM3C_MCP1_up>  (40) 
0.0

>  <BSK_CASM3C_MCSF_down>  (40) 
0.0

>  <BSK_CASM3C_MCSF_up>  (40) 
0.0

>  <BSK_CASM3C_MIG_down>  (40) 
0.0

>  <BSK_CASM3C_MIG_up>  (40) 
0.0

>  <BSK_CASM3C_Proliferation_down>  (40) 
0.0

>  <BSK_CASM3C_Proliferation_up>  (40) 
0.0

>  <BSK_CASM3C_SAA_down>  (40) 
0.0

>  <BSK_CASM3C_SAA_up>  (40) 
0.0

>  <BSK_CASM3C_SRB_down>  (40) 
0.0

>  <BSK_CASM3C_SRB_up>  (40) 
0.0

>  <BSK_CASM3C_Thrombomodulin_down>  (40) 
0.0

>  <BSK_CASM3C_Thrombomodulin_up>  (40) 
0.0

>  <BSK_CASM3C_TissueFactor_down>  (40) 
0.0

>  <BSK_CASM3C_TissueFactor_up>  (40) 
0.0

>  <BSK_CASM3C_VCAM1_down>  (40) 
0.0

>  <BSK_CASM3C_VCAM1_up>  (40) 
0.0

>  <BSK_CASM3C_uPAR_down>  (40) 
0.0

>  <BSK_CASM3C_uPAR_up>  (40) 
0.0

>  <BSK_KF3CT_ICAM1_down>  (40) 
1.0

>  <BSK_KF3CT_ICAM1_up>  (40) 
0.0

>  <BSK_KF3CT_IL1a_down>  (40) 
0.0

>  <BSK_KF3CT_IL1a_up>  (40) 
0.0

>  <BSK_KF3CT_IP10_down>  (40) 
1.0

>  <BSK_KF3CT_IP10_up>  (40) 
0.0

>  <BSK_KF3CT_MCP1_down>  (40) 
0.0

>  <BSK_KF3CT_MCP1_up>  (40) 
0.0

>  <BSK_KF3CT_MMP9_down>  (40) 
1.0

>  <BSK_KF3CT_MMP9_up>  (40) 
0.0

>  <BSK_KF3CT_SRB_down>  (40) 
1.0

>  <BSK_KF3CT_SRB_up>  (40) 
0.0

>  <BSK_KF3CT_TGFb1_down>  (40) 
0.0

>  <BSK_KF3CT_TGFb1_up>  (40) 
0.0

>  <BSK_KF3CT_TIMP2_down>  (40) 
1.0

>  <BSK_KF3CT_TIMP2_up>  (40) 
0.0

>  <BSK_KF3CT_uPA_down>  (40) 
0.0

>  <BSK_KF3CT_uPA_up>  (40) 
0.0

>  <BSK_LPS_CD40_down>  (40) 
1.0

>  <BSK_LPS_CD40_up>  (40) 
0.0

>  <BSK_LPS_Eselectin_down>  (40) 
1.0

>  <BSK_LPS_Eselectin_up>  (40) 
0.0

>  <BSK_LPS_IL1a_down>  (40) 
0.0

>  <BSK_LPS_IL1a_up>  (40) 
0.0

>  <BSK_LPS_IL8_down>  (40) 
0.0

>  <BSK_LPS_IL8_up>  (40) 
0.0

>  <BSK_LPS_MCP1_down>  (40) 
1.0

>  <BSK_LPS_MCP1_up>  (40) 
0.0

>  <BSK_LPS_MCSF_down>  (40) 
1.0

>  <BSK_LPS_MCSF_up>  (40) 
0.0

>  <BSK_LPS_PGE2_down>  (40) 
0.0

>  <BSK_LPS_PGE2_up>  (40) 
0.0

>  <BSK_LPS_SRB_down>  (40) 
1.0

>  <BSK_LPS_SRB_up>  (40) 
0.0

>  <BSK_LPS_TNFa_down>  (40) 
0.0

>  <BSK_LPS_TNFa_up>  (40) 
0.0

>  <BSK_LPS_TissueFactor_down>  (40) 
0.0

>  <BSK_LPS_TissueFactor_up>  (40) 
0.0

>  <BSK_LPS_VCAM1_down>  (40) 
1.0

>  <BSK_LPS_VCAM1_up>  (40) 
0.0

>  <BSK_SAg_CD38_down>  (40) 
1.0

>  <BSK_SAg_CD38_up>  (40) 
0.0

>  <BSK_SAg_CD40_down>  (40) 
1.0

>  <BSK_SAg_CD40_up>  (40) 
0.0

>  <BSK_SAg_CD69_down>  (40) 
1.0

>  <BSK_SAg_CD69_up>  (40) 
0.0

>  <BSK_SAg_Eselectin_down>  (40) 
0.0

>  <BSK_SAg_Eselectin_up>  (40) 
0.0

>  <BSK_SAg_IL8_down>  (40) 
0.0

>  <BSK_SAg_IL8_up>  (40) 
0.0

>  <BSK_SAg_MCP1_down>  (40) 
1.0

>  <BSK_SAg_MCP1_up>  (40) 
0.0

>  <BSK_SAg_MIG_down>  (40) 
0.0

>  <BSK_SAg_MIG_up>  (40) 
0.0

>  <BSK_SAg_PBMCCytotoxicity_down>  (40) 
0.0

>  <BSK_SAg_PBMCCytotoxicity_up>  (40) 
1.0

>  <BSK_SAg_Proliferation_down>  (40) 
1.0

>  <BSK_SAg_Proliferation_up>  (40) 
0.0

>  <BSK_SAg_SRB_down>  (40) 
1.0

>  <BSK_SAg_SRB_up>  (40) 
0.0

>  <BSK_hDFCGF_CollagenIII_down>  (40) 
1.0

>  <BSK_hDFCGF_CollagenIII_up>  (40) 
0.0

>  <BSK_hDFCGF_EGFR_down>  (40) 
0.0

>  <BSK_hDFCGF_EGFR_up>  (40) 
0.0

>  <BSK_hDFCGF_IL8_down>  (40) 
0.0

>  <BSK_hDFCGF_IL8_up>  (40) 
0.0

>  <BSK_hDFCGF_IP10_down>  (40) 
1.0

>  <BSK_hDFCGF_IP10_up>  (40) 
0.0

>  <BSK_hDFCGF_MCSF_down>  (40) 
1.0

>  <BSK_hDFCGF_MCSF_up>  (40) 
0.0

>  <BSK_hDFCGF_MIG_down>  (40) 
1.0

>  <BSK_hDFCGF_MIG_up>  (40) 
0.0

>  <BSK_hDFCGF_MMP1_down>  (40) 
0.0

>  <BSK_hDFCGF_MMP1_up>  (40) 
0.0

>  <BSK_hDFCGF_PAI1_down>  (40) 
1.0

>  <BSK_hDFCGF_PAI1_up>  (40) 
0.0

>  <BSK_hDFCGF_Proliferation_down>  (40) 
1.0

>  <BSK_hDFCGF_Proliferation_up>  (40) 
0.0

>  <BSK_hDFCGF_SRB_down>  (40) 
1.0

>  <BSK_hDFCGF_SRB_up>  (40) 
0.0

>  <BSK_hDFCGF_TIMP1_down>  (40) 
0.0

>  <BSK_hDFCGF_TIMP1_up>  (40) 
0.0

>  <BSK_hDFCGF_VCAM1_down>  (40) 
1.0

>  <BSK_hDFCGF_VCAM1_up>  (40) 
0.0

>  <CEETOX_H295R_11DCORT_noMTC_dn>  (40) 
0.0

>  <CEETOX_H295R_11DCORT_noMTC_up>  (40) 
0.0

>  <CEETOX_H295R_ANDR_noMTC_dn>  (40) 
0.0

>  <CEETOX_H295R_ANDR_noMTC_up>  (40) 
0.0

>  <CEETOX_H295R_CORTIC_noMTC_dn>  (40) 
0.0

>  <CEETOX_H295R_CORTIC_noMTC_up>  (40) 
0.0

>  <CEETOX_H295R_CORTISOL_noMTC_dn>  (40) 
0.0

>  <CEETOX_H295R_CORTISOL_noMTC_up>  (40) 
0.0

>  <CEETOX_H295R_DOC_noMTC_dn>  (40) 
0.0

>  <CEETOX_H295R_DOC_noMTC_up>  (40) 
0.0

>  <CEETOX_H295R_ESTRADIOL_noMTC_dn>  (40) 
0.0

>  <CEETOX_H295R_ESTRADIOL_noMTC_up>  (40) 
0.0

>  <CEETOX_H295R_ESTRONE_noMTC_dn>  (40) 
0.0

>  <CEETOX_H295R_ESTRONE_noMTC_up>  (40) 
0.0

>  <CEETOX_H295R_MTT_cell_viability_dn>  (40) 
0.0

>  <CEETOX_H295R_MTT_cell_viability_up>  (40) 
0.0

>  <CEETOX_H295R_OHPREG_noMTC_dn>  (40) 
0.0

>  <CEETOX_H295R_OHPREG_noMTC_up>  (40) 
0.0

>  <CEETOX_H295R_OHPROG_noMTC_dn>  (40) 
0.0

>  <CEETOX_H295R_OHPROG_noMTC_up>  (40) 
0.0

>  <CEETOX_H295R_PROG_noMTC_dn>  (40) 
0.0

>  <CEETOX_H295R_PROG_noMTC_up>  (40) 
0.0

>  <CEETOX_H295R_TESTO_noMTC_dn>  (40) 
0.0

>  <CEETOX_H295R_TESTO_noMTC_up>  (40) 
0.0

>  <NCCT_HEK293T_CellTiterGLO>  (40) 
0.0

>  <NCCT_QuantiLum_inhib_2_dn>  (40) 
0.0

>  <NCCT_QuantiLum_inhib_dn>  (40) 
0.0

>  <NCCT_TPO_AUR_dn>  (40) 
1.0

>  <NHEERL_ZF_144hpf_TERATOSCORE_up>  (40) 
1.0

>  <NIS_HEK293T_CTG_Cytotoxicity>  (40) 
1.0

>  <NIS_RAIU_inhibition>  (40) 
1.0

>  <NVS_ADME_hCYP1A1>  (40) 
0.0

>  <NVS_ADME_hCYP1A1_Activator>  (40) 
0.0

>  <NVS_ADME_hCYP2A6>  (40) 
0.0

>  <NVS_ADME_hCYP2A6_Activator>  (40) 
0.0

>  <NVS_ADME_hCYP2B6>  (40) 
0.0

>  <NVS_ADME_hCYP2B6_Activator>  (40) 
0.0

>  <NVS_ENZ_hBACE>  (40) 
0.0

>  <NVS_ENZ_hBACE_Activator>  (40) 
0.0

>  <NVS_ENZ_hPDE5>  (40) 
0.0

>  <NVS_ENZ_hPDE5_Activator>  (40) 
0.0

>  <NVS_ENZ_hPTPN9>  (40) 
0.0

>  <NVS_ENZ_hPTPN9_Activator>  (40) 
0.0

>  <NVS_GPCR_bAdoR_NonSelective>  (40) 
0.0

>  <NVS_GPCR_gOpiateK>  (40) 
0.0

>  <NVS_GPCR_hLTB4_BLT1>  (40) 
0.0

>  <NVS_GPCR_hPY2>  (40) 
0.0

>  <NVS_GPCR_hV1A>  (40) 
0.0

>  <NVS_LGIC_rAMPA>  (40) 
0.0

>  <NVS_NR_hPPARa>  (40) 
0.0

>  <NVS_NR_hPPARg>  (40) 
0.0

>  <OT_AR_ARSRC1_0480>  (40) 
0.0

>  <OT_AR_ARSRC1_0960>  (40) 
0.0

>  <OT_ER_ERaERa_0480>  (40) 
0.0

>  <OT_ER_ERaERa_1440>  (40) 
0.0

>  <OT_ER_ERaERb_0480>  (40) 
0.0

>  <OT_ER_ERbERb_0480>  (40) 
0.0

>  <OT_ER_ERbERb_1440>  (40) 
0.0

>  <OT_ERa_EREGFP_0480>  (40) 
0.0

>  <TOX21_AP1_BLA_Agonist_ch1>  (40) 
0.0

>  <TOX21_AP1_BLA_Agonist_ch2>  (40) 
0.0

>  <TOX21_AP1_BLA_Agonist_ratio>  (40) 
0.0

>  <TOX21_AP1_BLA_Agonist_viability>  (40) 
0.0

>  <TOX21_ARE_BLA_Agonist_ch1>  (40) 
0.0

>  <TOX21_ARE_BLA_Agonist_ch2>  (40) 
1.0

>  <TOX21_ARE_BLA_agonist_viability>  (40) 
1.0

>  <TOX21_AR_BLA_Agonist_ch1>  (40) 
0.0

>  <TOX21_AR_BLA_Agonist_ch2>  (40) 
0.0

>  <TOX21_AR_BLA_Agonist_ratio>  (40) 
0.0

>  <TOX21_AR_BLA_Antagonist_ch1>  (40) 
1.0

>  <TOX21_AR_BLA_Antagonist_ch2>  (40) 
1.0

>  <TOX21_AR_BLA_Antagonist_ratio>  (40) 
1.0

>  <TOX21_AR_BLA_Antagonist_viability>  (40) 
1.0

>  <TOX21_AR_LUC_MDAKB2_Agonist>  (40) 
0.0

>  <TOX21_AR_LUC_MDAKB2_Agonist_3uM_Nilutamide>  (40) 
0.0

>  <TOX21_AR_LUC_MDAKB2_Agonist_3uM_Nilutamide_viability>  (40) 
1.0

>  <TOX21_AR_LUC_MDAKB2_Antagonist_0.5nM_R1881>  (40) 
1.0

>  <TOX21_AR_LUC_MDAKB2_Antagonist_0.5nM_R1881_viability>  (40) 
1.0

>  <TOX21_AR_LUC_MDAKB2_Antagonist_10nM_R1881>  (40) 
1.0

>  <TOX21_AR_LUC_MDAKB2_Antagonist_10nM_R1881_viability>  (40) 
1.0

>  <TOX21_AhR_LUC_Agonist>  (40) 
1.0

>  <TOX21_Aromatase_Inhibition>  (40) 
1.0

>  <TOX21_Aromatase_Inhibition_viability>  (40) 
1.0

>  <TOX21_AutoFluor_HEK293_Cell_blue>  (40) 
0.0

>  <TOX21_AutoFluor_HEK293_Cell_green>  (40) 
0.0

>  <TOX21_AutoFluor_HEK293_Cell_red>  (40) 
0.0

>  <TOX21_AutoFluor_HEK293_Media_blue>  (40) 
0.0

>  <TOX21_AutoFluor_HEK293_Media_green>  (40) 
0.0

>  <TOX21_AutoFluor_HEK293_Media_red>  (40) 
0.0

>  <TOX21_AutoFluor_HEPG2_Cell_blue>  (40) 
0.0

>  <TOX21_AutoFluor_HEPG2_Cell_green>  (40) 
0.0

>  <TOX21_AutoFluor_HEPG2_Cell_red>  (40) 
0.0

>  <TOX21_AutoFluor_HEPG2_Media_blue>  (40) 
0.0

>  <TOX21_AutoFluor_HEPG2_Media_green>  (40) 
0.0

>  <TOX21_AutoFluor_HEPG2_Media_red>  (40) 
0.0

>  <TOX21_CAR_Agonist>  (40) 
1.0

>  <TOX21_CAR_Antagonist>  (40) 
0.0

>  <TOX21_CAR_Antagonist_viability>  (40) 
1.0

>  <TOX21_CASP3_CHO>  (40) 
0.0

>  <TOX21_CASP3_CHO_viability>  (40) 
1.0

>  <TOX21_CASP3_HEPG2>  (40) 
0.0

>  <TOX21_CASP3_HEPG2_viability>  (40) 
0.0

>  <TOX21_DT40>  (40) 
1.0

>  <TOX21_DT40_100>  (40) 
1.0

>  <TOX21_DT40_657>  (40) 
1.0

>  <TOX21_ELG1_LUC_Agonist>  (40) 
0.0

>  <TOX21_ELG1_LUC_Agonist_viability>  (40) 
0.0

>  <TOX21_ERR_Agonist>  (40) 
0.0

>  <TOX21_ERR_Antagonist>  (40) 
1.0

>  <TOX21_ERa_BLA_Agonist_ch1>  (40) 
0.0

>  <TOX21_ERa_BLA_Agonist_ch2>  (40) 
0.0

>  <TOX21_ERa_BLA_Agonist_ratio>  (40) 
0.0

>  <TOX21_ERa_BLA_Antagonist_ch1>  (40) 
1.0

>  <TOX21_ERa_BLA_Antagonist_ch2>  (40) 
1.0

>  <TOX21_ERa_BLA_Antagonist_ratio>  (40) 
1.0

>  <TOX21_ERa_BLA_Antagonist_viability>  (40) 
0.0

>  <TOX21_ERa_LUC_VM7_Agonist>  (40) 
0.0

>  <TOX21_ERa_LUC_VM7_Agonist_10nM_ICI182780>  (40) 
0.0

>  <TOX21_ERa_LUC_VM7_Agonist_10nM_ICI182780_viability>  (40) 
1.0

>  <TOX21_ERa_LUC_VM7_Antagonist_0.1nM_E2>  (40) 
1.0

>  <TOX21_ERa_LUC_VM7_Antagonist_0.1nM_E2_viability>  (40) 
0.0

>  <TOX21_ERa_LUC_VM7_Antagonist_0.5nM_E2>  (40) 
1.0

>  <TOX21_ERa_LUC_VM7_Antagonist_0.5nM_E2_viability>  (40) 
0.0

>  <TOX21_ERb_BLA_Agonist_ch1>  (40) 
0.0

>  <TOX21_ERb_BLA_Agonist_ch2>  (40) 
0.0

>  <TOX21_ERb_BLA_Agonist_ratio>  (40) 
0.0

>  <TOX21_ERb_BLA_Agonist_viability>  (40) 
1.0

>  <TOX21_ERb_BLA_Antagonist_ch1>  (40) 
1.0

>  <TOX21_ERb_BLA_Antagonist_ch2>  (40) 
1.0

>  <TOX21_ERb_BLA_Antagonist_ratio>  (40) 
1.0

>  <TOX21_ERb_BLA_Antagonist_viability>  (40) 
1.0

>  <TOX21_ESRE_BLA_ch1>  (40) 
0.0

>  <TOX21_ESRE_BLA_ch2>  (40) 
0.0

>  <TOX21_ESRE_BLA_ratio>  (40) 
0.0

>  <TOX21_ESRE_BLA_viability>  (40) 
0.0

>  <TOX21_FXR_BLA_Antagonist_ch1>  (40) 
1.0

>  <TOX21_FXR_BLA_Antagonist_ch2>  (40) 
1.0

>  <TOX21_FXR_BLA_agonist_ch1>  (40) 
0.0

>  <TOX21_FXR_BLA_agonist_ch2>  (40) 
0.0

>  <TOX21_FXR_BLA_agonist_ratio>  (40) 
0.0

>  <TOX21_FXR_BLA_agonist_viability>  (40) 
1.0

>  <TOX21_FXR_BLA_antagonist_ratio>  (40) 
1.0

>  <TOX21_FXR_BLA_antagonist_viability>  (40) 
1.0

>  <TOX21_GR_BLA_Agonist_ch1>  (40) 
1.0

>  <TOX21_GR_BLA_Agonist_ch2>  (40) 
0.0

>  <TOX21_GR_BLA_Agonist_ratio>  (40) 
0.0

>  <TOX21_GR_BLA_Antagonist_ch1>  (40) 
0.0

>  <TOX21_GR_BLA_Antagonist_ch2>  (40) 
1.0

>  <TOX21_GR_BLA_Antagonist_ratio>  (40) 
1.0

>  <TOX21_GR_BLA_Antagonist_viability>  (40) 
1.0

>  <TOX21_H2AX_HTRF_CHO_Agonist_ch1>  (40) 
0.0

>  <TOX21_H2AX_HTRF_CHO_Agonist_ch2>  (40) 
0.0

>  <TOX21_H2AX_HTRF_CHO_Agonist_ratio>  (40) 
0.0

>  <TOX21_H2AX_HTRF_CHO_viability>  (40) 
1.0

>  <TOX21_HDAC_Inhibition>  (40) 
0.0

>  <TOX21_HDAC_Inhibition_viability>  (40) 
0.0

>  <TOX21_HRE_BLA_Agonist_ch1>  (40) 
0.0

>  <TOX21_HRE_BLA_Agonist_ch2>  (40) 
0.0

>  <TOX21_HRE_BLA_Agonist_ratio>  (40) 
0.0

>  <TOX21_HRE_BLA_Agonist_viability>  (40) 
1.0

>  <TOX21_HSE_BLA_agonist_ch1>  (40) 
1.0

>  <TOX21_HSE_BLA_agonist_ch2>  (40) 
0.0

>  <TOX21_HSE_BLA_agonist_ratio>  (40) 
0.0

>  <TOX21_HSE_BLA_agonist_viability>  (40) 
0.0

>  <TOX21_LUC_Biochem>  (40) 
0.0

>  <TOX21_MMP_fitc>  (40) 
1.0

>  <TOX21_MMP_ratio_down>  (40) 
1.0

>  <TOX21_MMP_ratio_up>  (40) 
0.0

>  <TOX21_MMP_rhodamine>  (40) 
1.0

>  <TOX21_MMP_viability>  (40) 
1.0

>  <TOX21_NFkB_BLA_agonist_ch1>  (40) 
0.0

>  <TOX21_NFkB_BLA_agonist_ch2>  (40) 
0.0

>  <TOX21_NFkB_BLA_agonist_ratio>  (40) 
0.0

>  <TOX21_NFkB_BLA_agonist_viability>  (40) 
0.0

>  <TOX21_PGC_ERR_Agonist>  (40) 
0.0

>  <TOX21_PGC_ERR_Antagonist>  (40) 
1.0

>  <TOX21_PGC_ERR_viability>  (40) 
1.0

>  <TOX21_PPARd_BLA_Agonist_viability>  (40) 
1.0

>  <TOX21_PPARd_BLA_Antagonist_ch1>  (40) 
0.0

>  <TOX21_PPARd_BLA_Antagonist_ch2>  (40) 
0.0

>  <TOX21_PPARd_BLA_agonist_ch1>  (40) 
0.0

>  <TOX21_PPARd_BLA_agonist_ch2>  (40) 
1.0

>  <TOX21_PPARd_BLA_agonist_ratio>  (40) 
0.0

>  <TOX21_PPARd_BLA_antagonist_ratio>  (40) 
1.0

>  <TOX21_PPARd_BLA_antagonist_viability>  (40) 
0.0

>  <TOX21_PPARg_BLA_Agonist_ch1>  (40) 
0.0

>  <TOX21_PPARg_BLA_Agonist_ch2>  (40) 
0.0

>  <TOX21_PPARg_BLA_Agonist_ratio>  (40) 
0.0

>  <TOX21_PPARg_BLA_Antagonist_ch1>  (40) 
1.0

>  <TOX21_PPARg_BLA_Antagonist_ch2>  (40) 
1.0

>  <TOX21_PPARg_BLA_antagonist_ratio>  (40) 
1.0

>  <TOX21_PPARg_BLA_antagonist_viability>  (40) 
0.0

>  <TOX21_PR_BLA_Agonist_ch1>  (40) 
1.0

>  <TOX21_PR_BLA_Agonist_ch2>  (40) 
0.0

>  <TOX21_PR_BLA_Agonist_ratio>  (40) 
0.0

>  <TOX21_PR_BLA_Antagonist_ch1>  (40) 
0.0

>  <TOX21_PR_BLA_Antagonist_ch2>  (40) 
1.0

>  <TOX21_PR_BLA_Antagonist_ratio>  (40) 
1.0

>  <TOX21_PR_BLA_Antagonist_viability>  (40) 
1.0

>  <TOX21_PXR_Agonist>  (40) 
0.0

>  <TOX21_PXR_viability>  (40) 
1.0

>  <TOX21_RAR_LUC_Agonist>  (40) 
0.0

>  <TOX21_RAR_LUC_Agonist_viability>  (40) 
0.0

>  <TOX21_RAR_LUC_Antagonist_viability>  (40) 
0.0

>  <TOX21_RORg_LUC_CHO_Antagonist>  (40) 
1.0

>  <TOX21_RORg_LUC_CHO_Antagonist_viability>  (40) 
1.0

>  <TOX21_RT_HEK293_FLO_00hr_viability>  (40) 
0.0

>  <TOX21_RT_HEK293_FLO_08hr_viability>  (40) 
1.0

>  <TOX21_RT_HEK293_FLO_16hr_viability>  (40) 
0.0

>  <TOX21_RT_HEK293_FLO_24hr_viability>  (40) 
0.0

>  <TOX21_RT_HEK293_FLO_32hr_viability>  (40) 
0.0

>  <TOX21_RT_HEK293_FLO_40hr_viability>  (40) 
0.0

>  <TOX21_RT_HEK293_GLO_00hr_viability>  (40) 
0.0

>  <TOX21_RT_HEK293_GLO_08hr_viability>  (40) 
1.0

>  <TOX21_RT_HEK293_GLO_16hr_viability>  (40) 
1.0

>  <TOX21_RT_HEK293_GLO_24hr_viability>  (40) 
1.0

>  <TOX21_RT_HEK293_GLO_32hr_viability>  (40) 
1.0

>  <TOX21_RT_HEK293_GLO_40hr_viability>  (40) 
1.0

>  <TOX21_RT_HEPG2_FLO_00hr_ctrl_viability>  (40) 
0.0

>  <TOX21_RT_HEPG2_FLO_08hr_viability>  (40) 
0.0

>  <TOX21_RT_HEPG2_FLO_16hr_ctrl_viability>  (40) 
0.0

>  <TOX21_RT_HEPG2_FLO_24hr_viability>  (40) 
0.0

>  <TOX21_RT_HEPG2_FLO_32hr_ctrl_viability>  (40) 
0.0

>  <TOX21_RT_HEPG2_GLO_00hr_ctrl_viability>  (40) 
0.0

>  <TOX21_RT_HEPG2_GLO_08hr_ctrl_viability>  (40) 
0.0

>  <TOX21_RT_HEPG2_GLO_16hr_ctrl_viability>  (40) 
0.0

>  <TOX21_RT_HEPG2_GLO_24hr_ctrl_viability>  (40) 
0.0

>  <TOX21_RT_HEPG2_GLO_32hr_ctrl_viability>  (40) 
0.0

>  <TOX21_RT_HEPG2_GLO_40hr_viability>  (40) 
0.0

>  <TOX21_RXR_BLA_Agonist_ch1>  (40) 
0.0

>  <TOX21_RXR_BLA_Agonist_ch2>  (40) 
1.0

>  <TOX21_RXR_BLA_Agonist_ratio>  (40) 
0.0

>  <TOX21_RXR_BLA_Agonist_viability>  (40) 
1.0

>  <TOX21_SBE_BLA_Agonist_ch1>  (40) 
0.0

>  <TOX21_SBE_BLA_Agonist_ch2>  (40) 
0.0

>  <TOX21_SBE_BLA_Agonist_ratio>  (40) 
0.0

>  <TOX21_SBE_BLA_Agonist_viability>  (40) 
0.0

>  <TOX21_SBE_BLA_Antagonist_ch1>  (40) 
0.0

>  <TOX21_SBE_BLA_Antagonist_ch2>  (40) 
1.0

>  <TOX21_SBE_BLA_Antagonist_ratio>  (40) 
1.0

>  <TOX21_SBE_BLA_Antagonist_viability>  (40) 
0.0

>  <TOX21_SSH_3T3_GLI3_Agonist>  (40) 
0.0

>  <TOX21_SSH_3T3_GLI3_Agonist_viability>  (40) 
0.0

>  <TOX21_SSH_3T3_GLI3_Antagonist>  (40) 
1.0

>  <TOX21_SSH_3T3_GLI3_Antagonist_viability>  (40) 
0.0

>  <TOX21_TRHR_HEK293_Agonist>  (40) 
1.0

>  <TOX21_TRHR_HEK293_Antagonist>  (40) 
1.0

>  <TOX21_TR_LUC_GH3_Agonist>  (40) 
0.0

>  <TOX21_TR_LUC_GH3_Antagonist>  (40) 
1.0

>  <TOX21_TR_LUC_GH3_Antagonist_viability>  (40) 
1.0

>  <TOX21_TSHR_Agonist_ch2>  (40) 
0.0

>  <TOX21_TSHR_Antagonist_ch2>  (40) 
0.0

>  <TOX21_TSHR_Antagonist_ratio>  (40) 
0.0

>  <TOX21_TSHR_HTRF_Agonist_ch1>  (40) 
0.0

>  <TOX21_TSHR_HTRF_Antagonist_ch1>  (40) 
0.0

>  <TOX21_TSHR_wt_HTRF_ch1>  (40) 
0.0

>  <TOX21_TSHR_wt_ch2>  (40) 
0.0

>  <TOX21_TSHR_wt_ratio>  (40) 
0.0

>  <TOX21_VDR_BLA_Agonist_viability>  (40) 
0.0

>  <TOX21_VDR_BLA_Antagonist_ch1>  (40) 
1.0

>  <TOX21_VDR_BLA_Antagonist_ch2>  (40) 
0.0

>  <TOX21_VDR_BLA_agonist_ch1>  (40) 
0.0

>  <TOX21_VDR_BLA_agonist_ch2>  (40) 
0.0

>  <TOX21_VDR_BLA_agonist_ratio>  (40) 
0.0

>  <TOX21_VDR_BLA_antagonist_ratio>  (40) 
0.0

>  <TOX21_VDR_BLA_antagonist_viability>  (40) 
1.0

>  <TOX21_p53_BLA_p1_ch1>  (40) 
1.0

>  <TOX21_p53_BLA_p1_ch2>  (40) 
1.0

>  <TOX21_p53_BLA_p1_ratio>  (40) 
1.0

>  <TOX21_p53_BLA_p1_viability>  (40) 
0.0

>  <TOX21_p53_BLA_p2_ch1>  (40) 
1.0

>  <TOX21_p53_BLA_p2_ch2>  (40) 
1.0

>  <TOX21_p53_BLA_p2_ratio>  (40) 
1.0

>  <TOX21_p53_BLA_p2_viability>  (40) 
0.0

>  <TOX21_p53_BLA_p3_ch1>  (40) 
1.0

>  <TOX21_p53_BLA_p3_ch2>  (40) 
1.0

>  <TOX21_p53_BLA_p3_ratio>  (40) 
1.0

>  <TOX21_p53_BLA_p4_ch1>  (40) 
1.0

>  <TOX21_p53_BLA_p4_ch2>  (40) 
1.0

>  <TOX21_p53_BLA_p4_ratio>  (40) 
1.0

>  <TOX21_p53_BLA_p4_viability>  (40) 
0.0

>  <TOX21_p53_BLA_p5_ch1>  (40) 
1.0

>  <TOX21_p53_BLA_p5_ch2>  (40) 
1.0

>  <TOX21_p53_BLA_p5_ratio>  (40) 
1.0

>  <TOX21_p53_BLA_p5_viability>  (40) 
0.0

>  <Tanguay_ZF_120hpf_AXIS_up>  (40) 
-1.0

>  <Tanguay_ZF_120hpf_ActivityScore>  (40) 
1.0

>  <Tanguay_ZF_120hpf_BRAI_up>  (40) 
-1.0

>  <Tanguay_ZF_120hpf_CFIN_up>  (40) 
-1.0

>  <Tanguay_ZF_120hpf_CIRC_up>  (40) 
-1.0

>  <Tanguay_ZF_120hpf_EYE_up>  (40) 
-1.0

>  <Tanguay_ZF_120hpf_JAW_up>  (40) 
-1.0

>  <Tanguay_ZF_120hpf_MORT_up>  (40) 
1.0

>  <Tanguay_ZF_120hpf_NC_up>  (40) 
-1.0

>  <Tanguay_ZF_120hpf_OTIC_up>  (40) 
-1.0

>  <Tanguay_ZF_120hpf_PE_up>  (40) 
-1.0

>  <Tanguay_ZF_120hpf_PFIN_up>  (40) 
-1.0

>  <Tanguay_ZF_120hpf_PIG_up>  (40) 
-1.0

>  <Tanguay_ZF_120hpf_SNOU_up>  (40) 
-1.0

>  <Tanguay_ZF_120hpf_SOMI_up>  (40) 
-1.0

>  <Tanguay_ZF_120hpf_SWIM_up>  (40) 
-1.0

>  <Tanguay_ZF_120hpf_TRUN_up>  (40) 
-1.0

>  <Tanguay_ZF_120hpf_TR_up>  (40) 
-1.0

>  <Tanguay_ZF_120hpf_YSE_up>  (40) 
-1.0

>  <UPITT_HCI_U2OS_AR_TIF2_Nucleoli_Agonist>  (40) 
0.0

>  <UPITT_HCI_U2OS_AR_TIF2_Nucleoli_Antagonist>  (40) 
0.0

>  <UPITT_HCI_U2OS_AR_TIF2_Nucleoli_Cytoplasm_Ratio_Agonist>  (40) 
0.0

>  <UPITT_HCI_U2OS_AR_TIF2_Nucleoli_Cytoplasm_Ratio_Antagonist>  (40) 
0.0

>  <NVS_NR_mERa>  (40) 
0

$$$$

     RDKit          3D

 10 10  0  0  0  0  0  0  0  0999 V2000
    0.0000    0.0000    0.0000 C   0  0  0  0  0  0  0  0  0  0  0  0
    0.0000    0.0000    0.0000 C   0  0  0  0  0  0  0  0  0  0  0  0
    0.0000    0.0000    0.0000 C   0  0  0  0  0  0  0  0  0  0  0  0
    0.0000    0.0000    0.0000 C   0  0  0  0  0  0  0  0  0  0  0  0
    0.0000    0.0000    0.0000 C   0  0  0  0  0  0  0  0  0  0  0  0
    0.0000    0.0000    0.0000 C   0  0  0  0  0  0  0  0  0  0  0  0
    0.0000    0.0000    0.0000 C   0  0  0  0  0  0  0  0  0  0  0  0
    0.0000    0.0000    0.0000 O   0  0  0  0  0  0  0  0  0  0  0  0
    0.0000    0.0000    0.0000 O   0  0  0  0  0  0  0  0  0  0  0  0
    0.0000    0.0000    0.0000 O   0  0  0  0  0  0  0  0  0  0  0  0
  1  2  2  0
  2  3  1  0
  3  4  2  0
  4  5  1  0
  5  6  2  0
  6  7  1  0
  7  8  2  0
  7  9  1  0
  3 10  1  0
  6  1  1  0
M  END
>  <CASRN>  (41) 
99-96-7

>  <Name>  (41) 
4-Hydroxybenzoic acid

>  <Active>  (41) 
0

>  <Inactive>  (41) 
2

>  <Bioactivity>  (41) 
Inactive

>  <Min LEL>  (41) 
nan

>  <Max HDT>  (41) 
1000.0

>  <Class>  (41) 
0

>  <Code>  (41) 
C99967

>  <OT_ER_ERaERb_1440>  (41) 
0.0

>  <OT_FXR_FXRSRC1_0480>  (41) 
0.0

>  <OT_PPARg_PPARgSRC1_1440>  (41) 
0.0

>  <OT_FXR_FXRSRC1_1440>  (41) 
0.0

>  <OT_NURR1_NURR1RXRa_0480>  (41) 
0.0

>  <OT_NURR1_NURR1RXRa_1440>  (41) 
0.0

>  <OT_PPARg_PPARgSRC1_0480>  (41) 
0.0

>  <OT_AR_ARELUC_AG_1440>  (41) 
0.0

>  <OT_ERa_EREGFP_0120>  (41) 
0.0

>  <ATG_CAR_TRANS_up>  (41) 
0.0

>  <ATG_E2F_CIS_dn>  (41) 
0.0

>  <ATG_EGR_CIS_up>  (41) 
0.0

>  <ATG_ERa_TRANS_dn>  (41) 
0.0

>  <ATG_ERa_TRANS_up>  (41) 
1.0

>  <ATG_FXR_TRANS_dn>  (41) 
0.0

>  <ATG_GLI_CIS_dn>  (41) 
0.0

>  <ATG_GRE_CIS_up>  (41) 
0.0

>  <ATG_LXRa_TRANS_dn>  (41) 
0.0

>  <ATG_LXRa_TRANS_up>  (41) 
0.0

>  <ATG_NRF1_CIS_up>  (41) 
0.0

>  <ATG_NURR1_TRANS_up>  (41) 
0.0

>  <ATG_Sox_CIS_dn>  (41) 
0.0

>  <ATG_Sox_CIS_up>  (41) 
0.0

>  <ATG_Sp1_CIS_up>  (41) 
0.0

>  <ATG_TGFb_CIS_up>  (41) 
0.0

>  <TOX21_ARE_BLA_agonist_ratio>  (41) 
0.0

>  <TOX21_RAR_LUC_Antagonist>  (41) 
0.0

>  <ATG_LXRb_TRANS_dn>  (41) 
0.0

>  <ATG_CAR_TRANS_dn>  (41) 
0.0

>  <ATG_BRE_CIS_dn>  (41) 
0.0

>  <ATG_E2F_CIS_up>  (41) 
0.0

>  <TOX21_TSHR_Agonist_ratio>  (41) 
0.0

>  <ACEA_ER_80hr>  (41) 
0.0

>  <TOX21_CAR_Agonist_viabillity>  (41) 
0.0

>  <TOX21_PR_BLA_Agonist_viability>  (41) 
0.0

>  <TOX21_RT_HEPG2_FLO_40hr_ctrl_viability>  (41) 
1.0

>  <TOX21_AhR_LUC_Agonist_viability>  (41) 
0.0

>  <TOX21_ERR_viability>  (41) 
0.0

>  <TOX21_p53_BLA_p3_viability>  (41) 
0.0

>  <NVS_NR_hER>  (41) 
1.0

>  <NVS_NR_cAR>  (41) 
0.0

>  <NVS_NR_hPR>  (41) 
1.0

>  <BSK_3C_HLADR_down>  (41) 
0.0

>  <BSK_3C_Vis_down>  (41) 
0.0

>  <BSK_3C_uPAR_down>  (41) 
0.0

>  <NVS_NR_rAR>  (41) 
0.0

>  <NVS_NR_hGR>  (41) 
1.0

>  <NVS_NR_hAR>  (41) 
1.0

>  <ACEA_AR_agonist_80hr>  (41) 
0.0

>  <ACEA_AR_agonist_AUC_viability>  (41) 
0.0

>  <ACEA_AR_antagonist_80hr>  (41) 
1.0

>  <ACEA_AR_antagonist_AUC_viability>  (41) 
1.0

>  <ACEA_ER_AUC_viability>  (41) 
0.0

>  <ATG_AP_1_CIS_dn>  (41) 
0.0

>  <ATG_AP_1_CIS_up>  (41) 
0.0

>  <ATG_AP_2_CIS_dn>  (41) 
0.0

>  <ATG_AP_2_CIS_up>  (41) 
0.0

>  <ATG_AR_TRANS_dn>  (41) 
0.0

>  <ATG_AR_TRANS_up>  (41) 
0.0

>  <ATG_Ahr_CIS_dn>  (41) 
0.0

>  <ATG_Ahr_CIS_up>  (41) 
0.0

>  <ATG_BRE_CIS_up>  (41) 
0.0

>  <ATG_CMV_CIS_dn>  (41) 
0.0

>  <ATG_CMV_CIS_up>  (41) 
0.0

>  <ATG_CRE_CIS_dn>  (41) 
0.0

>  <ATG_CRE_CIS_up>  (41) 
0.0

>  <ATG_C_EBP_CIS_dn>  (41) 
0.0

>  <ATG_C_EBP_CIS_up>  (41) 
0.0

>  <ATG_DR4_LXR_CIS_dn>  (41) 
0.0

>  <ATG_DR4_LXR_CIS_up>  (41) 
0.0

>  <ATG_DR5_CIS_dn>  (41) 
0.0

>  <ATG_DR5_CIS_up>  (41) 
0.0

>  <ATG_EGR_CIS_dn>  (41) 
0.0

>  <ATG_ERE_CIS_dn>  (41) 
0.0

>  <ATG_ERE_CIS_up>  (41) 
1.0

>  <ATG_ERRa_TRANS_dn>  (41) 
0.0

>  <ATG_ERRa_TRANS_up>  (41) 
0.0

>  <ATG_ERRg_TRANS_dn>  (41) 
0.0

>  <ATG_ERRg_TRANS_up>  (41) 
0.0

>  <ATG_E_Box_CIS_dn>  (41) 
0.0

>  <ATG_E_Box_CIS_up>  (41) 
0.0

>  <ATG_Ets_CIS_dn>  (41) 
0.0

>  <ATG_Ets_CIS_up>  (41) 
0.0

>  <ATG_FXR_TRANS_up>  (41) 
0.0

>  <ATG_FoxA2_CIS_dn>  (41) 
0.0

>  <ATG_FoxA2_CIS_up>  (41) 
0.0

>  <ATG_FoxO_CIS_dn>  (41) 
0.0

>  <ATG_FoxO_CIS_up>  (41) 
0.0

>  <ATG_GAL4_TRANS_dn>  (41) 
0.0

>  <ATG_GAL4_TRANS_up>  (41) 
0.0

>  <ATG_GATA_CIS_dn>  (41) 
0.0

>  <ATG_GATA_CIS_up>  (41) 
0.0

>  <ATG_GLI_CIS_up>  (41) 
0.0

>  <ATG_GRE_CIS_dn>  (41) 
0.0

>  <ATG_GR_TRANS_dn>  (41) 
0.0

>  <ATG_GR_TRANS_up>  (41) 
0.0

>  <ATG_HIF1a_CIS_dn>  (41) 
0.0

>  <ATG_HIF1a_CIS_up>  (41) 
0.0

>  <ATG_HNF4a_TRANS_dn>  (41) 
0.0

>  <ATG_HNF4a_TRANS_up>  (41) 
0.0

>  <ATG_HNF6_CIS_dn>  (41) 
0.0

>  <ATG_HNF6_CIS_up>  (41) 
0.0

>  <ATG_HSE_CIS_dn>  (41) 
0.0

>  <ATG_HSE_CIS_up>  (41) 
0.0

>  <ATG_IR1_CIS_dn>  (41) 
0.0

>  <ATG_IR1_CIS_up>  (41) 
0.0

>  <ATG_ISRE_CIS_dn>  (41) 
0.0

>  <ATG_ISRE_CIS_up>  (41) 
0.0

>  <ATG_LXRb_TRANS_up>  (41) 
0.0

>  <ATG_MRE_CIS_dn>  (41) 
0.0

>  <ATG_MRE_CIS_up>  (41) 
0.0

>  <ATG_M_06_CIS_dn>  (41) 
0.0

>  <ATG_M_06_CIS_up>  (41) 
0.0

>  <ATG_M_06_TRANS_dn>  (41) 
0.0

>  <ATG_M_06_TRANS_up>  (41) 
0.0

>  <ATG_M_19_CIS_dn>  (41) 
0.0

>  <ATG_M_19_CIS_up>  (41) 
0.0

>  <ATG_M_19_TRANS_dn>  (41) 
0.0

>  <ATG_M_19_TRANS_up>  (41) 
0.0

>  <ATG_M_32_CIS_dn>  (41) 
0.0

>  <ATG_M_32_CIS_up>  (41) 
0.0

>  <ATG_M_32_TRANS_dn>  (41) 
0.0

>  <ATG_M_32_TRANS_up>  (41) 
0.0

>  <ATG_M_61_CIS_dn>  (41) 
0.0

>  <ATG_M_61_CIS_up>  (41) 
0.0

>  <ATG_M_61_TRANS_dn>  (41) 
0.0

>  <ATG_M_61_TRANS_up>  (41) 
0.0

>  <ATG_Myb_CIS_dn>  (41) 
0.0

>  <ATG_Myb_CIS_up>  (41) 
0.0

>  <ATG_Myc_CIS_dn>  (41) 
0.0

>  <ATG_Myc_CIS_up>  (41) 
0.0

>  <ATG_NFI_CIS_dn>  (41) 
0.0

>  <ATG_NFI_CIS_up>  (41) 
0.0

>  <ATG_NF_kB_CIS_dn>  (41) 
0.0

>  <ATG_NF_kB_CIS_up>  (41) 
0.0

>  <ATG_NRF1_CIS_dn>  (41) 
0.0

>  <ATG_NRF2_ARE_CIS_dn>  (41) 
0.0

>  <ATG_NRF2_ARE_CIS_up>  (41) 
0.0

>  <ATG_NURR1_TRANS_dn>  (41) 
0.0

>  <ATG_Oct_MLP_CIS_dn>  (41) 
0.0

>  <ATG_Oct_MLP_CIS_up>  (41) 
0.0

>  <ATG_PBREM_CIS_dn>  (41) 
0.0

>  <ATG_PBREM_CIS_up>  (41) 
0.0

>  <ATG_PPARa_TRANS_dn>  (41) 
0.0

>  <ATG_PPARa_TRANS_up>  (41) 
0.0

>  <ATG_PPARd_TRANS_dn>  (41) 
0.0

>  <ATG_PPARd_TRANS_up>  (41) 
0.0

>  <ATG_PPARg_TRANS_dn>  (41) 
0.0

>  <ATG_PPARg_TRANS_up>  (41) 
0.0

>  <ATG_PPRE_CIS_dn>  (41) 
0.0

>  <ATG_PPRE_CIS_up>  (41) 
0.0

>  <ATG_PXRE_CIS_dn>  (41) 
0.0

>  <ATG_PXRE_CIS_up>  (41) 
0.0

>  <ATG_PXR_TRANS_dn>  (41) 
0.0

>  <ATG_PXR_TRANS_up>  (41) 
0.0

>  <ATG_Pax6_CIS_dn>  (41) 
0.0

>  <ATG_Pax6_CIS_up>  (41) 
0.0

>  <ATG_RARa_TRANS_dn>  (41) 
0.0

>  <ATG_RARa_TRANS_up>  (41) 
0.0

>  <ATG_RARb_TRANS_dn>  (41) 
0.0

>  <ATG_RARb_TRANS_up>  (41) 
0.0

>  <ATG_RARg_TRANS_dn>  (41) 
0.0

>  <ATG_RARg_TRANS_up>  (41) 
0.0

>  <ATG_RORE_CIS_dn>  (41) 
0.0

>  <ATG_RORE_CIS_up>  (41) 
0.0

>  <ATG_RORb_TRANS_dn>  (41) 
0.0

>  <ATG_RORb_TRANS_up>  (41) 
0.0

>  <ATG_RORg_TRANS_dn>  (41) 
0.0

>  <ATG_RORg_TRANS_up>  (41) 
0.0

>  <ATG_RXRa_TRANS_dn>  (41) 
0.0

>  <ATG_RXRa_TRANS_up>  (41) 
0.0

>  <ATG_RXRb_TRANS_dn>  (41) 
0.0

>  <ATG_RXRb_TRANS_up>  (41) 
1.0

>  <ATG_SREBP_CIS_dn>  (41) 
0.0

>  <ATG_SREBP_CIS_up>  (41) 
0.0

>  <ATG_STAT3_CIS_dn>  (41) 
0.0

>  <ATG_STAT3_CIS_up>  (41) 
0.0

>  <ATG_Sp1_CIS_dn>  (41) 
0.0

>  <ATG_TAL_CIS_dn>  (41) 
0.0

>  <ATG_TAL_CIS_up>  (41) 
0.0

>  <ATG_TA_CIS_dn>  (41) 
0.0

>  <ATG_TA_CIS_up>  (41) 
0.0

>  <ATG_TCF_b_cat_CIS_dn>  (41) 
0.0

>  <ATG_TCF_b_cat_CIS_up>  (41) 
0.0

>  <ATG_TGFb_CIS_dn>  (41) 
0.0

>  <ATG_THRa1_TRANS_dn>  (41) 
0.0

>  <ATG_THRa1_TRANS_up>  (41) 
0.0

>  <ATG_VDRE_CIS_dn>  (41) 
0.0

>  <ATG_VDRE_CIS_up>  (41) 
0.0

>  <ATG_VDR_TRANS_dn>  (41) 
0.0

>  <ATG_VDR_TRANS_up>  (41) 
0.0

>  <ATG_XTT_Cytotoxicity_up>  (41) 
0.0

>  <ATG_Xbp1_CIS_dn>  (41) 
0.0

>  <ATG_Xbp1_CIS_up>  (41) 
0.0

>  <ATG_p53_CIS_dn>  (41) 
0.0

>  <ATG_p53_CIS_up>  (41) 
0.0

>  <NCCT_HEK293T_CellTiterGLO>  (41) 
0.0

>  <NCCT_QuantiLum_inhib_2_dn>  (41) 
0.0

>  <NCCT_TPO_AUR_dn>  (41) 
1.0

>  <NVS_GPCR_rTRH>  (41) 
0.0

>  <NVS_NR_hPXR>  (41) 
0.0

>  <OT_AR_ARSRC1_0480>  (41) 
0.0

>  <OT_AR_ARSRC1_0960>  (41) 
0.0

>  <OT_ER_ERaERa_0480>  (41) 
0.0

>  <OT_ER_ERaERa_1440>  (41) 
0.0

>  <OT_ER_ERaERb_0480>  (41) 
0.0

>  <OT_ER_ERbERb_0480>  (41) 
0.0

>  <OT_ER_ERbERb_1440>  (41) 
0.0

>  <OT_ERa_EREGFP_0480>  (41) 
0.0

>  <TOX21_AP1_BLA_Agonist_ch1>  (41) 
0.0

>  <TOX21_AP1_BLA_Agonist_ch2>  (41) 
0.0

>  <TOX21_AP1_BLA_Agonist_ratio>  (41) 
0.0

>  <TOX21_AP1_BLA_Agonist_viability>  (41) 
0.0

>  <TOX21_ARE_BLA_Agonist_ch1>  (41) 
0.0

>  <TOX21_ARE_BLA_Agonist_ch2>  (41) 
0.0

>  <TOX21_ARE_BLA_agonist_viability>  (41) 
0.0

>  <TOX21_AR_BLA_Agonist_ch1>  (41) 
0.0

>  <TOX21_AR_BLA_Agonist_ch2>  (41) 
0.0

>  <TOX21_AR_BLA_Agonist_ratio>  (41) 
0.0

>  <TOX21_AR_BLA_Antagonist_ch1>  (41) 
0.0

>  <TOX21_AR_BLA_Antagonist_ch2>  (41) 
0.0

>  <TOX21_AR_BLA_Antagonist_ratio>  (41) 
0.0

>  <TOX21_AR_BLA_Antagonist_viability>  (41) 
0.0

>  <TOX21_AR_LUC_MDAKB2_Agonist>  (41) 
0.0

>  <TOX21_AR_LUC_MDAKB2_Agonist_3uM_Nilutamide>  (41) 
0.0

>  <TOX21_AR_LUC_MDAKB2_Agonist_3uM_Nilutamide_viability>  (41) 
0.0

>  <TOX21_AR_LUC_MDAKB2_Antagonist_0.5nM_R1881>  (41) 
0.0

>  <TOX21_AR_LUC_MDAKB2_Antagonist_0.5nM_R1881_viability>  (41) 
0.0

>  <TOX21_AR_LUC_MDAKB2_Antagonist_10nM_R1881>  (41) 
0.0

>  <TOX21_AR_LUC_MDAKB2_Antagonist_10nM_R1881_viability>  (41) 
0.0

>  <TOX21_AhR_LUC_Agonist>  (41) 
1.0

>  <TOX21_Aromatase_Inhibition>  (41) 
0.0

>  <TOX21_Aromatase_Inhibition_viability>  (41) 
0.0

>  <TOX21_AutoFluor_HEK293_Cell_blue>  (41) 
0.0

>  <TOX21_AutoFluor_HEK293_Cell_green>  (41) 
0.0

>  <TOX21_AutoFluor_HEK293_Cell_red>  (41) 
0.0

>  <TOX21_AutoFluor_HEK293_Media_blue>  (41) 
0.0

>  <TOX21_AutoFluor_HEK293_Media_green>  (41) 
0.0

>  <TOX21_AutoFluor_HEK293_Media_red>  (41) 
0.0

>  <TOX21_AutoFluor_HEPG2_Cell_blue>  (41) 
0.0

>  <TOX21_AutoFluor_HEPG2_Cell_green>  (41) 
0.0

>  <TOX21_AutoFluor_HEPG2_Cell_red>  (41) 
0.0

>  <TOX21_AutoFluor_HEPG2_Media_blue>  (41) 
0.0

>  <TOX21_AutoFluor_HEPG2_Media_green>  (41) 
0.0

>  <TOX21_AutoFluor_HEPG2_Media_red>  (41) 
0.0

>  <TOX21_CAR_Agonist>  (41) 
0.0

>  <TOX21_CAR_Antagonist>  (41) 
0.0

>  <TOX21_CAR_Antagonist_viability>  (41) 
0.0

>  <TOX21_CASP3_CHO>  (41) 
0.0

>  <TOX21_CASP3_CHO_viability>  (41) 
0.0

>  <TOX21_CASP3_HEPG2>  (41) 
0.0

>  <TOX21_CASP3_HEPG2_viability>  (41) 
0.0

>  <TOX21_DT40>  (41) 
0.0

>  <TOX21_DT40_100>  (41) 
0.0

>  <TOX21_DT40_657>  (41) 
0.0

>  <TOX21_ELG1_LUC_Agonist>  (41) 
0.0

>  <TOX21_ELG1_LUC_Agonist_viability>  (41) 
0.0

>  <TOX21_ERR_Agonist>  (41) 
0.0

>  <TOX21_ERR_Antagonist>  (41) 
0.0

>  <TOX21_ERa_BLA_Agonist_ch1>  (41) 
0.0

>  <TOX21_ERa_BLA_Agonist_ch2>  (41) 
0.0

>  <TOX21_ERa_BLA_Agonist_ratio>  (41) 
0.0

>  <TOX21_ERa_BLA_Antagonist_ch1>  (41) 
0.0

>  <TOX21_ERa_BLA_Antagonist_ch2>  (41) 
0.0

>  <TOX21_ERa_BLA_Antagonist_ratio>  (41) 
0.0

>  <TOX21_ERa_BLA_Antagonist_viability>  (41) 
0.0

>  <TOX21_ERa_LUC_VM7_Agonist>  (41) 
0.0

>  <TOX21_ERa_LUC_VM7_Agonist_10nM_ICI182780>  (41) 
0.0

>  <TOX21_ERa_LUC_VM7_Agonist_10nM_ICI182780_viability>  (41) 
0.0

>  <TOX21_ERa_LUC_VM7_Antagonist_0.1nM_E2>  (41) 
0.0

>  <TOX21_ERa_LUC_VM7_Antagonist_0.1nM_E2_viability>  (41) 
0.0

>  <TOX21_ERa_LUC_VM7_Antagonist_0.5nM_E2>  (41) 
0.0

>  <TOX21_ERa_LUC_VM7_Antagonist_0.5nM_E2_viability>  (41) 
0.0

>  <TOX21_ERb_BLA_Agonist_ch1>  (41) 
0.0

>  <TOX21_ERb_BLA_Agonist_ch2>  (41) 
0.0

>  <TOX21_ERb_BLA_Agonist_ratio>  (41) 
0.0

>  <TOX21_ERb_BLA_Agonist_viability>  (41) 
0.0

>  <TOX21_ERb_BLA_Antagonist_ch1>  (41) 
0.0

>  <TOX21_ERb_BLA_Antagonist_ch2>  (41) 
0.0

>  <TOX21_ERb_BLA_Antagonist_ratio>  (41) 
0.0

>  <TOX21_ERb_BLA_Antagonist_viability>  (41) 
0.0

>  <TOX21_ESRE_BLA_ch1>  (41) 
0.0

>  <TOX21_ESRE_BLA_ch2>  (41) 
0.0

>  <TOX21_ESRE_BLA_ratio>  (41) 
0.0

>  <TOX21_ESRE_BLA_viability>  (41) 
0.0

>  <TOX21_FXR_BLA_Antagonist_ch1>  (41) 
0.0

>  <TOX21_FXR_BLA_Antagonist_ch2>  (41) 
0.0

>  <TOX21_FXR_BLA_agonist_ch1>  (41) 
0.0

>  <TOX21_FXR_BLA_agonist_ch2>  (41) 
0.0

>  <TOX21_FXR_BLA_agonist_ratio>  (41) 
0.0

>  <TOX21_FXR_BLA_agonist_viability>  (41) 
0.0

>  <TOX21_FXR_BLA_antagonist_ratio>  (41) 
0.0

>  <TOX21_FXR_BLA_antagonist_viability>  (41) 
0.0

>  <TOX21_GR_BLA_Agonist_ch1>  (41) 
0.0

>  <TOX21_GR_BLA_Agonist_ch2>  (41) 
0.0

>  <TOX21_GR_BLA_Agonist_ratio>  (41) 
0.0

>  <TOX21_GR_BLA_Antagonist_ch1>  (41) 
0.0

>  <TOX21_GR_BLA_Antagonist_ch2>  (41) 
0.0

>  <TOX21_GR_BLA_Antagonist_ratio>  (41) 
0.0

>  <TOX21_GR_BLA_Antagonist_viability>  (41) 
0.0

>  <TOX21_H2AX_HTRF_CHO_Agonist_ch1>  (41) 
0.0

>  <TOX21_H2AX_HTRF_CHO_Agonist_ch2>  (41) 
0.0

>  <TOX21_H2AX_HTRF_CHO_Agonist_ratio>  (41) 
0.0

>  <TOX21_H2AX_HTRF_CHO_viability>  (41) 
0.0

>  <TOX21_HDAC_Inhibition>  (41) 
0.0

>  <TOX21_HDAC_Inhibition_viability>  (41) 
0.0

>  <TOX21_HRE_BLA_Agonist_ch1>  (41) 
0.0

>  <TOX21_HRE_BLA_Agonist_ch2>  (41) 
0.0

>  <TOX21_HRE_BLA_Agonist_ratio>  (41) 
0.0

>  <TOX21_HRE_BLA_Agonist_viability>  (41) 
0.0

>  <TOX21_HSE_BLA_agonist_ch1>  (41) 
0.0

>  <TOX21_HSE_BLA_agonist_ch2>  (41) 
0.0

>  <TOX21_HSE_BLA_agonist_ratio>  (41) 
0.0

>  <TOX21_HSE_BLA_agonist_viability>  (41) 
0.0

>  <TOX21_LUC_Biochem>  (41) 
0.0

>  <TOX21_MMP_fitc>  (41) 
0.0

>  <TOX21_MMP_ratio_down>  (41) 
0.0

>  <TOX21_MMP_ratio_up>  (41) 
0.0

>  <TOX21_MMP_rhodamine>  (41) 
0.0

>  <TOX21_MMP_viability>  (41) 
0.0

>  <TOX21_NFkB_BLA_agonist_ch1>  (41) 
0.0

>  <TOX21_NFkB_BLA_agonist_ch2>  (41) 
0.0

>  <TOX21_NFkB_BLA_agonist_ratio>  (41) 
0.0

>  <TOX21_NFkB_BLA_agonist_viability>  (41) 
0.0

>  <TOX21_PGC_ERR_Agonist>  (41) 
0.0

>  <TOX21_PGC_ERR_Antagonist>  (41) 
0.0

>  <TOX21_PGC_ERR_viability>  (41) 
0.0

>  <TOX21_PPARd_BLA_Agonist_viability>  (41) 
0.0

>  <TOX21_PPARd_BLA_Antagonist_ch1>  (41) 
0.0

>  <TOX21_PPARd_BLA_Antagonist_ch2>  (41) 
0.0

>  <TOX21_PPARd_BLA_agonist_ch1>  (41) 
0.0

>  <TOX21_PPARd_BLA_agonist_ch2>  (41) 
0.0

>  <TOX21_PPARd_BLA_agonist_ratio>  (41) 
0.0

>  <TOX21_PPARd_BLA_antagonist_ratio>  (41) 
0.0

>  <TOX21_PPARd_BLA_antagonist_viability>  (41) 
0.0

>  <TOX21_PPARg_BLA_Agonist_ch1>  (41) 
0.0

>  <TOX21_PPARg_BLA_Agonist_ch2>  (41) 
0.0

>  <TOX21_PPARg_BLA_Agonist_ratio>  (41) 
0.0

>  <TOX21_PPARg_BLA_Antagonist_ch1>  (41) 
0.0

>  <TOX21_PPARg_BLA_Antagonist_ch2>  (41) 
0.0

>  <TOX21_PPARg_BLA_antagonist_ratio>  (41) 
0.0

>  <TOX21_PPARg_BLA_antagonist_viability>  (41) 
0.0

>  <TOX21_PR_BLA_Agonist_ch1>  (41) 
0.0

>  <TOX21_PR_BLA_Agonist_ch2>  (41) 
0.0

>  <TOX21_PR_BLA_Agonist_ratio>  (41) 
0.0

>  <TOX21_PR_BLA_Antagonist_ch1>  (41) 
0.0

>  <TOX21_PR_BLA_Antagonist_ch2>  (41) 
0.0

>  <TOX21_PR_BLA_Antagonist_ratio>  (41) 
0.0

>  <TOX21_PR_BLA_Antagonist_viability>  (41) 
0.0

>  <TOX21_PXR_Agonist>  (41) 
0.0

>  <TOX21_PXR_viability>  (41) 
0.0

>  <TOX21_RAR_LUC_Agonist>  (41) 
0.0

>  <TOX21_RAR_LUC_Agonist_viability>  (41) 
0.0

>  <TOX21_RAR_LUC_Antagonist_viability>  (41) 
0.0

>  <TOX21_RORg_LUC_CHO_Antagonist>  (41) 
0.0

>  <TOX21_RORg_LUC_CHO_Antagonist_viability>  (41) 
0.0

>  <TOX21_RT_HEK293_FLO_00hr_viability>  (41) 
0.0

>  <TOX21_RT_HEK293_FLO_08hr_viability>  (41) 
0.0

>  <TOX21_RT_HEK293_FLO_16hr_viability>  (41) 
0.0

>  <TOX21_RT_HEK293_FLO_24hr_viability>  (41) 
0.0

>  <TOX21_RT_HEK293_FLO_32hr_viability>  (41) 
0.0

>  <TOX21_RT_HEK293_FLO_40hr_viability>  (41) 
0.0

>  <TOX21_RT_HEK293_GLO_00hr_viability>  (41) 
0.0

>  <TOX21_RT_HEK293_GLO_08hr_viability>  (41) 
0.0

>  <TOX21_RT_HEK293_GLO_16hr_viability>  (41) 
0.0

>  <TOX21_RT_HEK293_GLO_24hr_viability>  (41) 
0.0

>  <TOX21_RT_HEK293_GLO_32hr_viability>  (41) 
0.0

>  <TOX21_RT_HEK293_GLO_40hr_viability>  (41) 
0.0

>  <TOX21_RT_HEPG2_FLO_00hr_ctrl_viability>  (41) 
0.0

>  <TOX21_RT_HEPG2_FLO_08hr_viability>  (41) 
0.0

>  <TOX21_RT_HEPG2_FLO_16hr_ctrl_viability>  (41) 
1.0

>  <TOX21_RT_HEPG2_FLO_24hr_viability>  (41) 
0.0

>  <TOX21_RT_HEPG2_FLO_32hr_ctrl_viability>  (41) 
0.0

>  <TOX21_RT_HEPG2_GLO_00hr_ctrl_viability>  (41) 
0.0

>  <TOX21_RT_HEPG2_GLO_08hr_ctrl_viability>  (41) 
0.0

>  <TOX21_RT_HEPG2_GLO_16hr_ctrl_viability>  (41) 
0.0

>  <TOX21_RT_HEPG2_GLO_24hr_ctrl_viability>  (41) 
0.0

>  <TOX21_RT_HEPG2_GLO_32hr_ctrl_viability>  (41) 
0.0

>  <TOX21_RT_HEPG2_GLO_40hr_viability>  (41) 
0.0

>  <TOX21_RXR_BLA_Agonist_ch1>  (41) 
0.0

>  <TOX21_RXR_BLA_Agonist_ch2>  (41) 
0.0

>  <TOX21_RXR_BLA_Agonist_ratio>  (41) 
0.0

>  <TOX21_RXR_BLA_Agonist_viability>  (41) 
0.0

>  <TOX21_SBE_BLA_Agonist_ch1>  (41) 
0.0

>  <TOX21_SBE_BLA_Agonist_ch2>  (41) 
0.0

>  <TOX21_SBE_BLA_Agonist_ratio>  (41) 
0.0

>  <TOX21_SBE_BLA_Agonist_viability>  (41) 
0.0

>  <TOX21_SBE_BLA_Antagonist_ch1>  (41) 
0.0

>  <TOX21_SBE_BLA_Antagonist_ch2>  (41) 
0.0

>  <TOX21_SBE_BLA_Antagonist_ratio>  (41) 
0.0

>  <TOX21_SBE_BLA_Antagonist_viability>  (41) 
0.0

>  <TOX21_SSH_3T3_GLI3_Agonist>  (41) 
0.0

>  <TOX21_SSH_3T3_GLI3_Agonist_viability>  (41) 
0.0

>  <TOX21_SSH_3T3_GLI3_Antagonist>  (41) 
0.0

>  <TOX21_SSH_3T3_GLI3_Antagonist_viability>  (41) 
0.0

>  <TOX21_TRHR_HEK293_Agonist>  (41) 
0.0

>  <TOX21_TRHR_HEK293_Antagonist>  (41) 
0.0

>  <TOX21_TR_LUC_GH3_Agonist>  (41) 
0.0

>  <TOX21_TR_LUC_GH3_Antagonist>  (41) 
0.0

>  <TOX21_TR_LUC_GH3_Antagonist_viability>  (41) 
0.0

>  <TOX21_TSHR_Agonist_ch2>  (41) 
0.0

>  <TOX21_TSHR_Antagonist_ch2>  (41) 
0.0

>  <TOX21_TSHR_Antagonist_ratio>  (41) 
0.0

>  <TOX21_TSHR_HTRF_Agonist_ch1>  (41) 
0.0

>  <TOX21_TSHR_HTRF_Antagonist_ch1>  (41) 
0.0

>  <TOX21_TSHR_wt_HTRF_ch1>  (41) 
0.0

>  <TOX21_TSHR_wt_ch2>  (41) 
0.0

>  <TOX21_TSHR_wt_ratio>  (41) 
0.0

>  <TOX21_VDR_BLA_Agonist_viability>  (41) 
0.0

>  <TOX21_VDR_BLA_Antagonist_ch1>  (41) 
0.0

>  <TOX21_VDR_BLA_Antagonist_ch2>  (41) 
0.0

>  <TOX21_VDR_BLA_agonist_ch1>  (41) 
0.0

>  <TOX21_VDR_BLA_agonist_ch2>  (41) 
0.0

>  <TOX21_VDR_BLA_agonist_ratio>  (41) 
0.0

>  <TOX21_VDR_BLA_antagonist_ratio>  (41) 
0.0

>  <TOX21_VDR_BLA_antagonist_viability>  (41) 
0.0

>  <TOX21_p53_BLA_p1_ch1>  (41) 
0.0

>  <TOX21_p53_BLA_p1_ch2>  (41) 
0.0

>  <TOX21_p53_BLA_p1_ratio>  (41) 
0.0

>  <TOX21_p53_BLA_p1_viability>  (41) 
0.0

>  <TOX21_p53_BLA_p2_ch1>  (41) 
0.0

>  <TOX21_p53_BLA_p2_ch2>  (41) 
0.0

>  <TOX21_p53_BLA_p2_ratio>  (41) 
0.0

>  <TOX21_p53_BLA_p2_viability>  (41) 
0.0

>  <TOX21_p53_BLA_p3_ch1>  (41) 
0.0

>  <TOX21_p53_BLA_p3_ch2>  (41) 
0.0

>  <TOX21_p53_BLA_p3_ratio>  (41) 
0.0

>  <TOX21_p53_BLA_p4_ch1>  (41) 
0.0

>  <TOX21_p53_BLA_p4_ch2>  (41) 
0.0

>  <TOX21_p53_BLA_p4_ratio>  (41) 
0.0

>  <TOX21_p53_BLA_p4_viability>  (41) 
0.0

>  <TOX21_p53_BLA_p5_ch1>  (41) 
0.0

>  <TOX21_p53_BLA_p5_ch2>  (41) 
0.0

>  <TOX21_p53_BLA_p5_ratio>  (41) 
0.0

>  <TOX21_p53_BLA_p5_viability>  (41) 
0.0

>  <UPITT_HCI_U2OS_AR_TIF2_Nucleoli_Agonist>  (41) 
0.0

>  <UPITT_HCI_U2OS_AR_TIF2_Nucleoli_Antagonist>  (41) 
0.0

>  <UPITT_HCI_U2OS_AR_TIF2_Nucleoli_Cytoplasm_Ratio_Agonist>  (41) 
0.0

>  <UPITT_HCI_U2OS_AR_TIF2_Nucleoli_Cytoplasm_Ratio_Antagonist>  (41) 
0.0

>  <NVS_NR_mERa>  (41) 
1.0

$$$$

     RDKit          3D

 20 23  0  0  0  0  0  0  0  0999 V2000
    0.0000    0.0000    0.0000 C   0  0  0  0  0  0  0  0  0  0  0  0
    0.0000    0.0000    0.0000 C   0  0  0  0  0  0  0  0  0  0  0  0
    0.0000    0.0000    0.0000 C   0  0  0  0  0  0  0  0  0  0  0  0
    0.0000    0.0000    0.0000 C   0  0  0  0  0  0  0  0  0  0  0  0
    0.0000    0.0000    0.0000 C   0  0  0  0  0  0  0  0  0  0  0  0
    0.0000    0.0000    0.0000 C   0  0  0  0  0  0  0  0  0  0  0  0
    0.0000    0.0000    0.0000 C   0  0  0  0  0  0  0  0  0  0  0  0
    0.0000    0.0000    0.0000 C   0  0  0  0  0  0  0  0  0  0  0  0
    0.0000    0.0000    0.0000 C   0  0  0  0  0  0  0  0  0  0  0  0
    0.0000    0.0000    0.0000 C   0  0  0  0  0  0  0  0  0  0  0  0
    0.0000    0.0000    0.0000 O   0  0  0  0  0  0  0  0  0  0  0  0
    0.0000    0.0000    0.0000 C   0  0  0  0  0  0  0  0  0  0  0  0
    0.0000    0.0000    0.0000 C   0  0  0  0  0  0  0  0  0  0  0  0
    0.0000    0.0000    0.0000 C   0  0  0  0  0  0  0  0  0  0  0  0
    0.0000    0.0000    0.0000 C   0  0  0  0  0  0  0  0  0  0  0  0
    0.0000    0.0000    0.0000 C   0  0  0  0  0  0  0  0  0  0  0  0
    0.0000    0.0000    0.0000 C   0  0  0  0  0  0  0  0  0  0  0  0
    0.0000    0.0000    0.0000 C   0  0  0  0  0  0  0  0  0  0  0  0
    0.0000    0.0000    0.0000 C   0  0  0  0  0  0  0  0  0  0  0  0
    0.0000    0.0000    0.0000 O   0  0  0  0  0  0  0  0  0  0  0  0
  1  2  1  0
  2  3  1  0
  3  4  1  0
  4  5  1  0
  5  6  1  0
  6  7  1  0
  7  8  1  0
  8  9  1  0
  9 10  1  0
 10 11  1  0
  6 12  1  0
 12 13  1  0
 13 14  1  0
 14 15  2  0
 15 16  1  0
 16 17  2  0
 17 18  1  0
 18 19  2  0
 18 20  1  0
  7  2  1  0
 10  2  1  0
 15  5  1  0
 19 14  1  0
M  END
>  <CASRN>  (42) 
50-28-2

>  <Name>  (42) 
Estradiol

>  <Active>  (42) 
25

>  <Inactive>  (42) 
0

>  <Bioactivity>  (42) 
Active

>  <Min LEL>  (42) 
1e-05

>  <Max HDT>  (42) 
nan

>  <Class>  (42) 
1

>  <Code>  (42) 
C50282

>  <NVS_NR_hER>  (42) 
1.0

>  <NVS_NR_cAR>  (42) 
1.0

>  <NVS_NR_hAR>  (42) 
1.0

>  <NVS_NR_hGR>  (42) 
1.0

>  <NVS_NR_hPR>  (42) 
1.0

>  <NVS_NR_rAR>  (42) 
1.0

>  <OT_ER_ERaERb_1440>  (42) 
1.0

>  <OT_FXR_FXRSRC1_0480>  (42) 
1.0

>  <OT_PPARg_PPARgSRC1_1440>  (42) 
0.0

>  <OT_FXR_FXRSRC1_1440>  (42) 
1.0

>  <OT_NURR1_NURR1RXRa_0480>  (42) 
0.0

>  <OT_NURR1_NURR1RXRa_1440>  (42) 
0.0

>  <OT_PPARg_PPARgSRC1_0480>  (42) 
0.0

>  <OT_AR_ARELUC_AG_1440>  (42) 
1.0

>  <OT_ERa_EREGFP_0120>  (42) 
1.0

>  <BSK_3C_HLADR_down>  (42) 
1.0

>  <BSK_3C_Vis_down>  (42) 
1.0

>  <BSK_3C_uPAR_down>  (42) 
1.0

>  <ATG_CAR_TRANS_up>  (42) 
0.0

>  <ATG_E2F_CIS_dn>  (42) 
0.0

>  <ATG_EGR_CIS_up>  (42) 
0.0

>  <ATG_ERa_TRANS_dn>  (42) 
0.0

>  <ATG_ERa_TRANS_up>  (42) 
1.0

>  <ATG_FXR_TRANS_dn>  (42) 
0.0

>  <ATG_GLI_CIS_dn>  (42) 
0.0

>  <ATG_GRE_CIS_up>  (42) 
0.0

>  <ATG_LXRa_TRANS_dn>  (42) 
0.0

>  <ATG_LXRa_TRANS_up>  (42) 
0.0

>  <ATG_NRF1_CIS_up>  (42) 
0.0

>  <ATG_NURR1_TRANS_up>  (42) 
0.0

>  <ATG_Sox_CIS_dn>  (42) 
0.0

>  <ATG_Sox_CIS_up>  (42) 
0.0

>  <ATG_Sp1_CIS_up>  (42) 
0.0

>  <ATG_TGFb_CIS_up>  (42) 
0.0

>  <TOX21_ARE_BLA_agonist_ratio>  (42) 
0.0

>  <TOX21_RAR_LUC_Antagonist>  (42) 
1.0

>  <ATG_LXRb_TRANS_dn>  (42) 
0.0

>  <ATG_CAR_TRANS_dn>  (42) 
0.0

>  <ATG_BRE_CIS_dn>  (42) 
0.0

>  <ATG_E2F_CIS_up>  (42) 
0.0

>  <TOX21_TSHR_Agonist_ratio>  (42) 
0.0

>  <ACEA_ER_80hr>  (42) 
1.0

>  <TOX21_CAR_Agonist_viabillity>  (42) 
0.0

>  <TOX21_PR_BLA_Agonist_viability>  (42) 
0.0

>  <TOX21_RT_HEPG2_FLO_40hr_ctrl_viability>  (42) 
1.0

>  <TOX21_AhR_LUC_Agonist_viability>  (42) 
0.0

>  <TOX21_ERR_viability>  (42) 
1.0

>  <TOX21_p53_BLA_p3_viability>  (42) 
0.0

>  <NVS_NR_bER>  (42) 
1.0

>  <ACEA_AR_agonist_80hr>  (42) 
1.0

>  <ACEA_AR_agonist_AUC_viability>  (42) 
0.0

>  <ACEA_AR_antagonist_80hr>  (42) 
0.0

>  <ACEA_AR_antagonist_AUC_viability>  (42) 
0.0

>  <ACEA_ER_AUC_viability>  (42) 
0.0

>  <APR_HepG2_CellCycleArrest_24h_dn>  (42) 
0.0

>  <APR_HepG2_CellCycleArrest_24h_up>  (42) 
0.0

>  <APR_HepG2_CellCycleArrest_72h_dn>  (42) 
0.0

>  <APR_HepG2_CellCycleArrest_72h_up>  (42) 
0.0

>  <APR_HepG2_CellLoss_24h_dn>  (42) 
1.0

>  <APR_HepG2_CellLoss_24h_up>  (42) 
0.0

>  <APR_HepG2_CellLoss_72h_dn>  (42) 
1.0

>  <APR_HepG2_CellLoss_72h_up>  (42) 
0.0

>  <APR_HepG2_MicrotubuleCSK_24h_dn>  (42) 
0.0

>  <APR_HepG2_MicrotubuleCSK_24h_up>  (42) 
1.0

>  <APR_HepG2_MicrotubuleCSK_72h_dn>  (42) 
0.0

>  <APR_HepG2_MicrotubuleCSK_72h_up>  (42) 
1.0

>  <APR_HepG2_MitoMass_24h_dn>  (42) 
0.0

>  <APR_HepG2_MitoMass_24h_up>  (42) 
0.0

>  <APR_HepG2_MitoMass_72h_dn>  (42) 
0.0

>  <APR_HepG2_MitoMass_72h_up>  (42) 
0.0

>  <APR_HepG2_MitoMembPot_24h_dn>  (42) 
0.0

>  <APR_HepG2_MitoMembPot_24h_up>  (42) 
0.0

>  <APR_HepG2_MitoMembPot_72h_dn>  (42) 
0.0

>  <APR_HepG2_MitoMembPot_72h_up>  (42) 
0.0

>  <APR_HepG2_MitoticArrest_24h_dn>  (42) 
0.0

>  <APR_HepG2_MitoticArrest_24h_up>  (42) 
1.0

>  <APR_HepG2_MitoticArrest_72h_dn>  (42) 
0.0

>  <APR_HepG2_MitoticArrest_72h_up>  (42) 
1.0

>  <APR_HepG2_NuclearSize_24h_dn>  (42) 
0.0

>  <APR_HepG2_NuclearSize_24h_up>  (42) 
0.0

>  <APR_HepG2_NuclearSize_72h_dn>  (42) 
0.0

>  <APR_HepG2_NuclearSize_72h_up>  (42) 
0.0

>  <APR_HepG2_OxidativeStress_24h_dn>  (42) 
0.0

>  <APR_HepG2_OxidativeStress_24h_up>  (42) 
1.0

>  <APR_HepG2_OxidativeStress_72h_dn>  (42) 
0.0

>  <APR_HepG2_OxidativeStress_72h_up>  (42) 
1.0

>  <APR_HepG2_StressKinase_24h_dn>  (42) 
0.0

>  <APR_HepG2_StressKinase_24h_up>  (42) 
0.0

>  <APR_HepG2_StressKinase_72h_dn>  (42) 
0.0

>  <APR_HepG2_StressKinase_72h_up>  (42) 
0.0

>  <APR_HepG2_p53Act_24h_dn>  (42) 
0.0

>  <APR_HepG2_p53Act_24h_up>  (42) 
1.0

>  <APR_HepG2_p53Act_72h_dn>  (42) 
0.0

>  <APR_HepG2_p53Act_72h_up>  (42) 
1.0

>  <ATG_AP_1_CIS_dn>  (42) 
0.0

>  <ATG_AP_1_CIS_up>  (42) 
0.0

>  <ATG_AP_2_CIS_dn>  (42) 
0.0

>  <ATG_AP_2_CIS_up>  (42) 
0.0

>  <ATG_AR_TRANS_dn>  (42) 
0.0

>  <ATG_AR_TRANS_up>  (42) 
1.0

>  <ATG_Ahr_CIS_dn>  (42) 
0.0

>  <ATG_Ahr_CIS_up>  (42) 
0.0

>  <ATG_BRE_CIS_up>  (42) 
0.0

>  <ATG_CMV_CIS_dn>  (42) 
0.0

>  <ATG_CMV_CIS_up>  (42) 
1.0

>  <ATG_CRE_CIS_dn>  (42) 
0.0

>  <ATG_CRE_CIS_up>  (42) 
0.0

>  <ATG_C_EBP_CIS_dn>  (42) 
0.0

>  <ATG_C_EBP_CIS_up>  (42) 
0.0

>  <ATG_DR4_LXR_CIS_dn>  (42) 
0.0

>  <ATG_DR4_LXR_CIS_up>  (42) 
0.0

>  <ATG_DR5_CIS_dn>  (42) 
0.0

>  <ATG_DR5_CIS_up>  (42) 
0.0

>  <ATG_EGR_CIS_dn>  (42) 
0.0

>  <ATG_ERE_CIS_dn>  (42) 
0.0

>  <ATG_ERE_CIS_up>  (42) 
1.0

>  <ATG_ERRa_TRANS_dn>  (42) 
0.0

>  <ATG_ERRa_TRANS_up>  (42) 
0.0

>  <ATG_ERRg_TRANS_dn>  (42) 
0.0

>  <ATG_ERRg_TRANS_up>  (42) 
0.0

>  <ATG_E_Box_CIS_dn>  (42) 
0.0

>  <ATG_E_Box_CIS_up>  (42) 
0.0

>  <ATG_Ets_CIS_dn>  (42) 
0.0

>  <ATG_Ets_CIS_up>  (42) 
0.0

>  <ATG_FXR_TRANS_up>  (42) 
0.0

>  <ATG_FoxA2_CIS_dn>  (42) 
0.0

>  <ATG_FoxA2_CIS_up>  (42) 
0.0

>  <ATG_FoxO_CIS_dn>  (42) 
0.0

>  <ATG_FoxO_CIS_up>  (42) 
0.0

>  <ATG_GAL4_TRANS_dn>  (42) 
0.0

>  <ATG_GAL4_TRANS_up>  (42) 
0.0

>  <ATG_GATA_CIS_dn>  (42) 
0.0

>  <ATG_GATA_CIS_up>  (42) 
0.0

>  <ATG_GLI_CIS_up>  (42) 
0.0

>  <ATG_GRE_CIS_dn>  (42) 
0.0

>  <ATG_GR_TRANS_dn>  (42) 
0.0

>  <ATG_GR_TRANS_up>  (42) 
0.0

>  <ATG_HIF1a_CIS_dn>  (42) 
0.0

>  <ATG_HIF1a_CIS_up>  (42) 
0.0

>  <ATG_HNF4a_TRANS_dn>  (42) 
0.0

>  <ATG_HNF4a_TRANS_up>  (42) 
0.0

>  <ATG_HNF6_CIS_dn>  (42) 
0.0

>  <ATG_HNF6_CIS_up>  (42) 
0.0

>  <ATG_HSE_CIS_dn>  (42) 
0.0

>  <ATG_HSE_CIS_up>  (42) 
0.0

>  <ATG_IR1_CIS_dn>  (42) 
0.0

>  <ATG_IR1_CIS_up>  (42) 
0.0

>  <ATG_ISRE_CIS_dn>  (42) 
0.0

>  <ATG_ISRE_CIS_up>  (42) 
0.0

>  <ATG_LXRb_TRANS_up>  (42) 
0.0

>  <ATG_MRE_CIS_dn>  (42) 
0.0

>  <ATG_MRE_CIS_up>  (42) 
1.0

>  <ATG_M_06_CIS_dn>  (42) 
0.0

>  <ATG_M_06_CIS_up>  (42) 
0.0

>  <ATG_M_06_TRANS_dn>  (42) 
0.0

>  <ATG_M_06_TRANS_up>  (42) 
0.0

>  <ATG_M_19_CIS_dn>  (42) 
0.0

>  <ATG_M_19_CIS_up>  (42) 
0.0

>  <ATG_M_19_TRANS_dn>  (42) 
0.0

>  <ATG_M_19_TRANS_up>  (42) 
0.0

>  <ATG_M_32_CIS_dn>  (42) 
0.0

>  <ATG_M_32_CIS_up>  (42) 
0.0

>  <ATG_M_32_TRANS_dn>  (42) 
0.0

>  <ATG_M_32_TRANS_up>  (42) 
0.0

>  <ATG_M_61_CIS_dn>  (42) 
0.0

>  <ATG_M_61_CIS_up>  (42) 
0.0

>  <ATG_M_61_TRANS_dn>  (42) 
0.0

>  <ATG_M_61_TRANS_up>  (42) 
0.0

>  <ATG_Myb_CIS_dn>  (42) 
0.0

>  <ATG_Myb_CIS_up>  (42) 
0.0

>  <ATG_Myc_CIS_dn>  (42) 
0.0

>  <ATG_Myc_CIS_up>  (42) 
0.0

>  <ATG_NFI_CIS_dn>  (42) 
0.0

>  <ATG_NFI_CIS_up>  (42) 
0.0

>  <ATG_NF_kB_CIS_dn>  (42) 
0.0

>  <ATG_NF_kB_CIS_up>  (42) 
0.0

>  <ATG_NRF1_CIS_dn>  (42) 
0.0

>  <ATG_NRF2_ARE_CIS_dn>  (42) 
0.0

>  <ATG_NRF2_ARE_CIS_up>  (42) 
0.0

>  <ATG_NURR1_TRANS_dn>  (42) 
0.0

>  <ATG_Oct_MLP_CIS_dn>  (42) 
0.0

>  <ATG_Oct_MLP_CIS_up>  (42) 
0.0

>  <ATG_PBREM_CIS_dn>  (42) 
0.0

>  <ATG_PBREM_CIS_up>  (42) 
0.0

>  <ATG_PPARa_TRANS_dn>  (42) 
0.0

>  <ATG_PPARa_TRANS_up>  (42) 
0.0

>  <ATG_PPARd_TRANS_dn>  (42) 
0.0

>  <ATG_PPARd_TRANS_up>  (42) 
0.0

>  <ATG_PPARg_TRANS_dn>  (42) 
0.0

>  <ATG_PPARg_TRANS_up>  (42) 
0.0

>  <ATG_PPRE_CIS_dn>  (42) 
0.0

>  <ATG_PPRE_CIS_up>  (42) 
0.0

>  <ATG_PXRE_CIS_dn>  (42) 
0.0

>  <ATG_PXRE_CIS_up>  (42) 
1.0

>  <ATG_PXR_TRANS_dn>  (42) 
0.0

>  <ATG_PXR_TRANS_up>  (42) 
1.0

>  <ATG_Pax6_CIS_dn>  (42) 
0.0

>  <ATG_Pax6_CIS_up>  (42) 
0.0

>  <ATG_RARa_TRANS_dn>  (42) 
0.0

>  <ATG_RARa_TRANS_up>  (42) 
0.0

>  <ATG_RARb_TRANS_dn>  (42) 
0.0

>  <ATG_RARb_TRANS_up>  (42) 
0.0

>  <ATG_RARg_TRANS_dn>  (42) 
0.0

>  <ATG_RARg_TRANS_up>  (42) 
0.0

>  <ATG_RORE_CIS_dn>  (42) 
0.0

>  <ATG_RORE_CIS_up>  (42) 
0.0

>  <ATG_RORb_TRANS_dn>  (42) 
0.0

>  <ATG_RORb_TRANS_up>  (42) 
0.0

>  <ATG_RORg_TRANS_dn>  (42) 
0.0

>  <ATG_RORg_TRANS_up>  (42) 
0.0

>  <ATG_RXRa_TRANS_dn>  (42) 
0.0

>  <ATG_RXRa_TRANS_up>  (42) 
0.0

>  <ATG_RXRb_TRANS_dn>  (42) 
0.0

>  <ATG_RXRb_TRANS_up>  (42) 
0.0

>  <ATG_SREBP_CIS_dn>  (42) 
0.0

>  <ATG_SREBP_CIS_up>  (42) 
1.0

>  <ATG_STAT3_CIS_dn>  (42) 
0.0

>  <ATG_STAT3_CIS_up>  (42) 
0.0

>  <ATG_Sp1_CIS_dn>  (42) 
0.0

>  <ATG_TAL_CIS_dn>  (42) 
0.0

>  <ATG_TAL_CIS_up>  (42) 
0.0

>  <ATG_TA_CIS_dn>  (42) 
0.0

>  <ATG_TA_CIS_up>  (42) 
0.0

>  <ATG_TCF_b_cat_CIS_dn>  (42) 
0.0

>  <ATG_TCF_b_cat_CIS_up>  (42) 
0.0

>  <ATG_TGFb_CIS_dn>  (42) 
0.0

>  <ATG_THRa1_TRANS_dn>  (42) 
0.0

>  <ATG_THRa1_TRANS_up>  (42) 
0.0

>  <ATG_VDRE_CIS_dn>  (42) 
0.0

>  <ATG_VDRE_CIS_up>  (42) 
0.0

>  <ATG_VDR_TRANS_dn>  (42) 
0.0

>  <ATG_VDR_TRANS_up>  (42) 
0.0

>  <ATG_XTT_Cytotoxicity_up>  (42) 
0.0

>  <ATG_Xbp1_CIS_dn>  (42) 
0.0

>  <ATG_Xbp1_CIS_up>  (42) 
0.0

>  <ATG_p53_CIS_dn>  (42) 
1.0

>  <ATG_p53_CIS_up>  (42) 
0.0

>  <BSK_3C_Eselectin_down>  (42) 
1.0

>  <BSK_3C_Eselectin_up>  (42) 
0.0

>  <BSK_3C_HLADR_up>  (42) 
0.0

>  <BSK_3C_ICAM1_down>  (42) 
0.0

>  <BSK_3C_ICAM1_up>  (42) 
0.0

>  <BSK_3C_IL8_down>  (42) 
1.0

>  <BSK_3C_IL8_up>  (42) 
0.0

>  <BSK_3C_MCP1_down>  (42) 
1.0

>  <BSK_3C_MCP1_up>  (42) 
0.0

>  <BSK_3C_MIG_down>  (42) 
0.0

>  <BSK_3C_MIG_up>  (42) 
0.0

>  <BSK_3C_Proliferation_down>  (42) 
1.0

>  <BSK_3C_Proliferation_up>  (42) 
0.0

>  <BSK_3C_SRB_down>  (42) 
1.0

>  <BSK_3C_SRB_up>  (42) 
0.0

>  <BSK_3C_Thrombomodulin_down>  (42) 
0.0

>  <BSK_3C_Thrombomodulin_up>  (42) 
0.0

>  <BSK_3C_TissueFactor_down>  (42) 
1.0

>  <BSK_3C_TissueFactor_up>  (42) 
0.0

>  <BSK_3C_VCAM1_down>  (42) 
0.0

>  <BSK_3C_VCAM1_up>  (42) 
0.0

>  <BSK_3C_Vis_up>  (42) 
0.0

>  <BSK_3C_uPAR_up>  (42) 
0.0

>  <BSK_4H_Eotaxin3_down>  (42) 
1.0

>  <BSK_4H_Eotaxin3_up>  (42) 
0.0

>  <BSK_4H_MCP1_down>  (42) 
1.0

>  <BSK_4H_MCP1_up>  (42) 
0.0

>  <BSK_4H_Pselectin_down>  (42) 
0.0

>  <BSK_4H_Pselectin_up>  (42) 
0.0

>  <BSK_4H_SRB_down>  (42) 
1.0

>  <BSK_4H_SRB_up>  (42) 
0.0

>  <BSK_4H_VCAM1_down>  (42) 
0.0

>  <BSK_4H_VCAM1_up>  (42) 
0.0

>  <BSK_4H_VEGFRII_down>  (42) 
0.0

>  <BSK_4H_VEGFRII_up>  (42) 
0.0

>  <BSK_4H_uPAR_down>  (42) 
1.0

>  <BSK_4H_uPAR_up>  (42) 
0.0

>  <BSK_BE3C_HLADR_down>  (42) 
0.0

>  <BSK_BE3C_HLADR_up>  (42) 
0.0

>  <BSK_BE3C_IL1a_down>  (42) 
0.0

>  <BSK_BE3C_IL1a_up>  (42) 
0.0

>  <BSK_BE3C_IP10_down>  (42) 
0.0

>  <BSK_BE3C_IP10_up>  (42) 
0.0

>  <BSK_BE3C_MIG_down>  (42) 
0.0

>  <BSK_BE3C_MIG_up>  (42) 
0.0

>  <BSK_BE3C_MMP1_down>  (42) 
0.0

>  <BSK_BE3C_MMP1_up>  (42) 
0.0

>  <BSK_BE3C_PAI1_down>  (42) 
0.0

>  <BSK_BE3C_PAI1_up>  (42) 
0.0

>  <BSK_BE3C_SRB_down>  (42) 
0.0

>  <BSK_BE3C_SRB_up>  (42) 
0.0

>  <BSK_BE3C_TGFb1_down>  (42) 
0.0

>  <BSK_BE3C_TGFb1_up>  (42) 
0.0

>  <BSK_BE3C_tPA_down>  (42) 
0.0

>  <BSK_BE3C_tPA_up>  (42) 
0.0

>  <BSK_BE3C_uPAR_down>  (42) 
0.0

>  <BSK_BE3C_uPAR_up>  (42) 
0.0

>  <BSK_BE3C_uPA_down>  (42) 
0.0

>  <BSK_BE3C_uPA_up>  (42) 
0.0

>  <BSK_CASM3C_HLADR_down>  (42) 
0.0

>  <BSK_CASM3C_HLADR_up>  (42) 
0.0

>  <BSK_CASM3C_IL6_down>  (42) 
0.0

>  <BSK_CASM3C_IL6_up>  (42) 
0.0

>  <BSK_CASM3C_IL8_down>  (42) 
0.0

>  <BSK_CASM3C_IL8_up>  (42) 
0.0

>  <BSK_CASM3C_LDLR_down>  (42) 
0.0

>  <BSK_CASM3C_LDLR_up>  (42) 
0.0

>  <BSK_CASM3C_MCP1_down>  (42) 
0.0

>  <BSK_CASM3C_MCP1_up>  (42) 
0.0

>  <BSK_CASM3C_MCSF_down>  (42) 
1.0

>  <BSK_CASM3C_MCSF_up>  (42) 
0.0

>  <BSK_CASM3C_MIG_down>  (42) 
0.0

>  <BSK_CASM3C_MIG_up>  (42) 
0.0

>  <BSK_CASM3C_Proliferation_down>  (42) 
1.0

>  <BSK_CASM3C_Proliferation_up>  (42) 
0.0

>  <BSK_CASM3C_SAA_down>  (42) 
0.0

>  <BSK_CASM3C_SAA_up>  (42) 
0.0

>  <BSK_CASM3C_SRB_down>  (42) 
0.0

>  <BSK_CASM3C_SRB_up>  (42) 
0.0

>  <BSK_CASM3C_Thrombomodulin_down>  (42) 
0.0

>  <BSK_CASM3C_Thrombomodulin_up>  (42) 
0.0

>  <BSK_CASM3C_TissueFactor_down>  (42) 
0.0

>  <BSK_CASM3C_TissueFactor_up>  (42) 
0.0

>  <BSK_CASM3C_VCAM1_down>  (42) 
0.0

>  <BSK_CASM3C_VCAM1_up>  (42) 
0.0

>  <BSK_CASM3C_uPAR_down>  (42) 
0.0

>  <BSK_CASM3C_uPAR_up>  (42) 
0.0

>  <BSK_KF3CT_ICAM1_down>  (42) 
0.0

>  <BSK_KF3CT_ICAM1_up>  (42) 
0.0

>  <BSK_KF3CT_IL1a_down>  (42) 
0.0

>  <BSK_KF3CT_IL1a_up>  (42) 
0.0

>  <BSK_KF3CT_IP10_down>  (42) 
0.0

>  <BSK_KF3CT_IP10_up>  (42) 
0.0

>  <BSK_KF3CT_MCP1_down>  (42) 
0.0

>  <BSK_KF3CT_MCP1_up>  (42) 
0.0

>  <BSK_KF3CT_MMP9_down>  (42) 
0.0

>  <BSK_KF3CT_MMP9_up>  (42) 
0.0

>  <BSK_KF3CT_SRB_down>  (42) 
0.0

>  <BSK_KF3CT_SRB_up>  (42) 
0.0

>  <BSK_KF3CT_TGFb1_down>  (42) 
0.0

>  <BSK_KF3CT_TGFb1_up>  (42) 
0.0

>  <BSK_KF3CT_TIMP2_down>  (42) 
0.0

>  <BSK_KF3CT_TIMP2_up>  (42) 
0.0

>  <BSK_KF3CT_uPA_down>  (42) 
0.0

>  <BSK_KF3CT_uPA_up>  (42) 
0.0

>  <BSK_LPS_CD40_down>  (42) 
0.0

>  <BSK_LPS_CD40_up>  (42) 
0.0

>  <BSK_LPS_Eselectin_down>  (42) 
0.0

>  <BSK_LPS_Eselectin_up>  (42) 
0.0

>  <BSK_LPS_IL1a_down>  (42) 
0.0

>  <BSK_LPS_IL1a_up>  (42) 
0.0

>  <BSK_LPS_IL8_down>  (42) 
0.0

>  <BSK_LPS_IL8_up>  (42) 
0.0

>  <BSK_LPS_MCP1_down>  (42) 
0.0

>  <BSK_LPS_MCP1_up>  (42) 
0.0

>  <BSK_LPS_MCSF_down>  (42) 
0.0

>  <BSK_LPS_MCSF_up>  (42) 
0.0

>  <BSK_LPS_PGE2_down>  (42) 
0.0

>  <BSK_LPS_PGE2_up>  (42) 
0.0

>  <BSK_LPS_SRB_down>  (42) 
1.0

>  <BSK_LPS_SRB_up>  (42) 
0.0

>  <BSK_LPS_TNFa_down>  (42) 
1.0

>  <BSK_LPS_TNFa_up>  (42) 
0.0

>  <BSK_LPS_TissueFactor_down>  (42) 
0.0

>  <BSK_LPS_TissueFactor_up>  (42) 
0.0

>  <BSK_LPS_VCAM1_down>  (42) 
1.0

>  <BSK_LPS_VCAM1_up>  (42) 
0.0

>  <BSK_SAg_CD38_down>  (42) 
1.0

>  <BSK_SAg_CD38_up>  (42) 
0.0

>  <BSK_SAg_CD40_down>  (42) 
1.0

>  <BSK_SAg_CD40_up>  (42) 
0.0

>  <BSK_SAg_CD69_down>  (42) 
1.0

>  <BSK_SAg_CD69_up>  (42) 
0.0

>  <BSK_SAg_Eselectin_down>  (42) 
0.0

>  <BSK_SAg_Eselectin_up>  (42) 
0.0

>  <BSK_SAg_IL8_down>  (42) 
0.0

>  <BSK_SAg_IL8_up>  (42) 
0.0

>  <BSK_SAg_MCP1_down>  (42) 
0.0

>  <BSK_SAg_MCP1_up>  (42) 
0.0

>  <BSK_SAg_MIG_down>  (42) 
1.0

>  <BSK_SAg_MIG_up>  (42) 
0.0

>  <BSK_SAg_PBMCCytotoxicity_down>  (42) 
0.0

>  <BSK_SAg_PBMCCytotoxicity_up>  (42) 
0.0

>  <BSK_SAg_Proliferation_down>  (42) 
1.0

>  <BSK_SAg_Proliferation_up>  (42) 
0.0

>  <BSK_SAg_SRB_down>  (42) 
1.0

>  <BSK_SAg_SRB_up>  (42) 
0.0

>  <BSK_hDFCGF_CollagenIII_down>  (42) 
1.0

>  <BSK_hDFCGF_CollagenIII_up>  (42) 
0.0

>  <BSK_hDFCGF_EGFR_down>  (42) 
0.0

>  <BSK_hDFCGF_EGFR_up>  (42) 
0.0

>  <BSK_hDFCGF_IL8_down>  (42) 
0.0

>  <BSK_hDFCGF_IL8_up>  (42) 
0.0

>  <BSK_hDFCGF_IP10_down>  (42) 
0.0

>  <BSK_hDFCGF_IP10_up>  (42) 
0.0

>  <BSK_hDFCGF_MCSF_down>  (42) 
0.0

>  <BSK_hDFCGF_MCSF_up>  (42) 
0.0

>  <BSK_hDFCGF_MIG_down>  (42) 
0.0

>  <BSK_hDFCGF_MIG_up>  (42) 
0.0

>  <BSK_hDFCGF_MMP1_down>  (42) 
0.0

>  <BSK_hDFCGF_MMP1_up>  (42) 
0.0

>  <BSK_hDFCGF_PAI1_down>  (42) 
0.0

>  <BSK_hDFCGF_PAI1_up>  (42) 
0.0

>  <BSK_hDFCGF_Proliferation_down>  (42) 
1.0

>  <BSK_hDFCGF_Proliferation_up>  (42) 
0.0

>  <BSK_hDFCGF_SRB_down>  (42) 
0.0

>  <BSK_hDFCGF_SRB_up>  (42) 
0.0

>  <BSK_hDFCGF_TIMP1_down>  (42) 
0.0

>  <BSK_hDFCGF_TIMP1_up>  (42) 
0.0

>  <BSK_hDFCGF_VCAM1_down>  (42) 
1.0

>  <BSK_hDFCGF_VCAM1_up>  (42) 
0.0

>  <CEETOX_H295R_11DCORT_dn>  (42) 
1.0

>  <CEETOX_H295R_11DCORT_up>  (42) 
0.0

>  <CEETOX_H295R_ANDR_dn>  (42) 
0.0

>  <CEETOX_H295R_ANDR_up>  (42) 
0.0

>  <CEETOX_H295R_CORTIC_dn>  (42) 
1.0

>  <CEETOX_H295R_CORTIC_up>  (42) 
0.0

>  <CEETOX_H295R_CORTISOL_dn>  (42) 
1.0

>  <CEETOX_H295R_CORTISOL_up>  (42) 
0.0

>  <CEETOX_H295R_DOC_dn>  (42) 
1.0

>  <CEETOX_H295R_DOC_up>  (42) 
0.0

>  <CEETOX_H295R_ESTRADIOL_dn>  (42) 
0.0

>  <CEETOX_H295R_ESTRADIOL_up>  (42) 
1.0

>  <CEETOX_H295R_ESTRONE_dn>  (42) 
0.0

>  <CEETOX_H295R_ESTRONE_up>  (42) 
1.0

>  <CEETOX_H295R_MTT_cell_viability_dn>  (42) 
0.0

>  <CEETOX_H295R_MTT_cell_viability_up>  (42) 
0.0

>  <CEETOX_H295R_OHPREG_dn>  (42) 
0.0

>  <CEETOX_H295R_OHPREG_up>  (42) 
1.0

>  <CEETOX_H295R_OHPROG_dn>  (42) 
0.0

>  <CEETOX_H295R_OHPROG_up>  (42) 
0.0

>  <CEETOX_H295R_PROG_dn>  (42) 
1.0

>  <CEETOX_H295R_PROG_up>  (42) 
0.0

>  <CEETOX_H295R_TESTO_dn>  (42) 
0.0

>  <CEETOX_H295R_TESTO_up>  (42) 
0.0

>  <NCCT_HEK293T_CellTiterGLO>  (42) 
0.0

>  <NCCT_QuantiLum_inhib_2_dn>  (42) 
0.0

>  <NCCT_QuantiLum_inhib_dn>  (42) 
1.0

>  <NCCT_TPO_AUR_dn>  (42) 
1.0

>  <NHEERL_ZF_144hpf_TERATOSCORE_up>  (42) 
1.0

>  <NVS_ADME_hCYP19A1>  (42) 
0.0

>  <NVS_ADME_hCYP19A1_Activator>  (42) 
0.0

>  <NVS_ADME_hCYP2C18>  (42) 
1.0

>  <NVS_ADME_hCYP2C18_Activator>  (42) 
0.0

>  <NVS_ADME_hCYP2C19>  (42) 
1.0

>  <NVS_ADME_hCYP2C19_Activator>  (42) 
0.0

>  <NVS_ADME_hCYP2J2>  (42) 
0.0

>  <NVS_ADME_hCYP2J2_Activator>  (42) 
0.0

>  <NVS_ADME_hCYP4F12>  (42) 
0.0

>  <NVS_ADME_hCYP4F12_Activator>  (42) 
0.0

>  <NVS_ADME_rCYP2A1>  (42) 
0.0

>  <NVS_ADME_rCYP2A1_Activator>  (42) 
0.0

>  <NVS_ADME_rCYP2A2>  (42) 
1.0

>  <NVS_ADME_rCYP2A2_Activator>  (42) 
0.0

>  <NVS_ADME_rCYP2B1>  (42) 
1.0

>  <NVS_ADME_rCYP2B1_Activator>  (42) 
0.0

>  <NVS_ADME_rCYP2C12>  (42) 
0.0

>  <NVS_ADME_rCYP2C12_Activator>  (42) 
0.0

>  <NVS_ADME_rCYP2C13>  (42) 
1.0

>  <NVS_ADME_rCYP2C13_Activator>  (42) 
0.0

>  <NVS_ADME_rCYP3A1>  (42) 
0.0

>  <NVS_ADME_rCYP3A1_Activator>  (42) 
0.0

>  <NVS_ADME_rCYP3A2>  (42) 
1.0

>  <NVS_ADME_rCYP3A2_Activator>  (42) 
0.0

>  <NVS_ENZ_hAKT2>  (42) 
0.0

>  <NVS_ENZ_hAKT2_Activator>  (42) 
0.0

>  <NVS_ENZ_hGSK3b>  (42) 
0.0

>  <NVS_ENZ_hGSK3b_Activator>  (42) 
0.0

>  <NVS_ENZ_hHDAC3>  (42) 
0.0

>  <NVS_ENZ_hHDAC3_Activator>  (42) 
0.0

>  <NVS_ENZ_hPDE4A1>  (42) 
0.0

>  <NVS_ENZ_hPDE4A1_Activator>  (42) 
0.0

>  <NVS_ENZ_hPTPRM>  (42) 
0.0

>  <NVS_ENZ_hPTPRM_Activator>  (42) 
0.0

>  <NVS_ENZ_hSIRT1>  (42) 
0.0

>  <NVS_ENZ_hSIRT1_Activator>  (42) 
0.0

>  <NVS_ENZ_hSIRT3>  (42) 
0.0

>  <NVS_ENZ_hSIRT3_Activator>  (42) 
0.0

>  <NVS_NR_bPR>  (42) 
1.0

>  <NVS_NR_hCAR_Antagonist>  (42) 
0.0

>  <NVS_NR_hFXR_Antagonist>  (42) 
0.0

>  <NVS_NR_hPPARa>  (42) 
0.0

>  <NVS_NR_hPPARg>  (42) 
0.0

>  <NVS_NR_hPXR>  (42) 
0.0

>  <NVS_NR_rMR>  (42) 
1.0

>  <NVS_TR_gDAT>  (42) 
1.0

>  <NVS_TR_hDAT>  (42) 
1.0

>  <OT_AR_ARSRC1_0480>  (42) 
1.0

>  <OT_AR_ARSRC1_0960>  (42) 
1.0

>  <OT_ER_ERaERa_0480>  (42) 
1.0

>  <OT_ER_ERaERa_1440>  (42) 
1.0

>  <OT_ER_ERaERb_0480>  (42) 
1.0

>  <OT_ER_ERbERb_0480>  (42) 
1.0

>  <OT_ER_ERbERb_1440>  (42) 
1.0

>  <OT_ERa_EREGFP_0480>  (42) 
1.0

>  <TOX21_AP1_BLA_Agonist_ch1>  (42) 
0.0

>  <TOX21_AP1_BLA_Agonist_ch2>  (42) 
0.0

>  <TOX21_AP1_BLA_Agonist_ratio>  (42) 
0.0

>  <TOX21_AP1_BLA_Agonist_viability>  (42) 
0.0

>  <TOX21_ARE_BLA_Agonist_ch1>  (42) 
0.0

>  <TOX21_ARE_BLA_Agonist_ch2>  (42) 
1.0

>  <TOX21_ARE_BLA_agonist_viability>  (42) 
0.0

>  <TOX21_AR_BLA_Agonist_ch1>  (42) 
0.0

>  <TOX21_AR_BLA_Agonist_ch2>  (42) 
1.0

>  <TOX21_AR_BLA_Agonist_ratio>  (42) 
1.0

>  <TOX21_AR_BLA_Antagonist_ch1>  (42) 
1.0

>  <TOX21_AR_BLA_Antagonist_ch2>  (42) 
1.0

>  <TOX21_AR_BLA_Antagonist_ratio>  (42) 
1.0

>  <TOX21_AR_BLA_Antagonist_viability>  (42) 
1.0

>  <TOX21_AR_LUC_MDAKB2_Agonist>  (42) 
1.0

>  <TOX21_AR_LUC_MDAKB2_Agonist_3uM_Nilutamide>  (42) 
1.0

>  <TOX21_AR_LUC_MDAKB2_Agonist_3uM_Nilutamide_viability>  (42) 
0.0

>  <TOX21_AR_LUC_MDAKB2_Antagonist_0.5nM_R1881>  (42) 
1.0

>  <TOX21_AR_LUC_MDAKB2_Antagonist_0.5nM_R1881_viability>  (42) 
0.0

>  <TOX21_AR_LUC_MDAKB2_Antagonist_10nM_R1881>  (42) 
0.0

>  <TOX21_AR_LUC_MDAKB2_Antagonist_10nM_R1881_viability>  (42) 
0.0

>  <TOX21_AhR_LUC_Agonist>  (42) 
0.0

>  <TOX21_Aromatase_Inhibition>  (42) 
0.0

>  <TOX21_Aromatase_Inhibition_viability>  (42) 
0.0

>  <TOX21_AutoFluor_HEK293_Cell_blue>  (42) 
0.0

>  <TOX21_AutoFluor_HEK293_Cell_green>  (42) 
0.0

>  <TOX21_AutoFluor_HEK293_Cell_red>  (42) 
0.0

>  <TOX21_AutoFluor_HEK293_Media_blue>  (42) 
0.0

>  <TOX21_AutoFluor_HEK293_Media_green>  (42) 
0.0

>  <TOX21_AutoFluor_HEK293_Media_red>  (42) 
0.0

>  <TOX21_AutoFluor_HEPG2_Cell_blue>  (42) 
0.0

>  <TOX21_AutoFluor_HEPG2_Cell_green>  (42) 
0.0

>  <TOX21_AutoFluor_HEPG2_Cell_red>  (42) 
0.0

>  <TOX21_AutoFluor_HEPG2_Media_blue>  (42) 
0.0

>  <TOX21_AutoFluor_HEPG2_Media_green>  (42) 
0.0

>  <TOX21_AutoFluor_HEPG2_Media_red>  (42) 
0.0

>  <TOX21_CAR_Agonist>  (42) 
1.0

>  <TOX21_CAR_Antagonist>  (42) 
0.0

>  <TOX21_CAR_Antagonist_viability>  (42) 
0.0

>  <TOX21_CASP3_CHO>  (42) 
0.0

>  <TOX21_CASP3_CHO_viability>  (42) 
1.0

>  <TOX21_CASP3_HEPG2>  (42) 
0.0

>  <TOX21_CASP3_HEPG2_viability>  (42) 
0.0

>  <TOX21_DT40>  (42) 
1.0

>  <TOX21_DT40_100>  (42) 
1.0

>  <TOX21_DT40_657>  (42) 
1.0

>  <TOX21_ELG1_LUC_Agonist>  (42) 
0.0

>  <TOX21_ELG1_LUC_Agonist_viability>  (42) 
0.0

>  <TOX21_ERR_Agonist>  (42) 
0.0

>  <TOX21_ERR_Antagonist>  (42) 
1.0

>  <TOX21_ERa_BLA_Agonist_ch1>  (42) 
1.0

>  <TOX21_ERa_BLA_Agonist_ch2>  (42) 
1.0

>  <TOX21_ERa_BLA_Agonist_ratio>  (42) 
1.0

>  <TOX21_ERa_BLA_Antagonist_ch1>  (42) 
0.0

>  <TOX21_ERa_BLA_Antagonist_ch2>  (42) 
0.0

>  <TOX21_ERa_BLA_Antagonist_ratio>  (42) 
0.0

>  <TOX21_ERa_BLA_Antagonist_viability>  (42) 
0.0

>  <TOX21_ERa_LUC_VM7_Agonist>  (42) 
1.0

>  <TOX21_ERa_LUC_VM7_Agonist_10nM_ICI182780>  (42) 
1.0

>  <TOX21_ERa_LUC_VM7_Agonist_10nM_ICI182780_viability>  (42) 
0.0

>  <TOX21_ERa_LUC_VM7_Antagonist_0.1nM_E2>  (42) 
1.0

>  <TOX21_ERa_LUC_VM7_Antagonist_0.1nM_E2_viability>  (42) 
0.0

>  <TOX21_ERa_LUC_VM7_Antagonist_0.5nM_E2>  (42) 
1.0

>  <TOX21_ERa_LUC_VM7_Antagonist_0.5nM_E2_viability>  (42) 
0.0

>  <TOX21_ERb_BLA_Agonist_ch1>  (42) 
0.0

>  <TOX21_ERb_BLA_Agonist_ch2>  (42) 
1.0

>  <TOX21_ERb_BLA_Agonist_ratio>  (42) 
1.0

>  <TOX21_ERb_BLA_Agonist_viability>  (42) 
1.0

>  <TOX21_ERb_BLA_Antagonist_ch1>  (42) 
0.0

>  <TOX21_ERb_BLA_Antagonist_ch2>  (42) 
0.0

>  <TOX21_ERb_BLA_Antagonist_ratio>  (42) 
0.0

>  <TOX21_ERb_BLA_Antagonist_viability>  (42) 
1.0

>  <TOX21_ESRE_BLA_ch1>  (42) 
0.0

>  <TOX21_ESRE_BLA_ch2>  (42) 
0.0

>  <TOX21_ESRE_BLA_ratio>  (42) 
0.0

>  <TOX21_ESRE_BLA_viability>  (42) 
0.0

>  <TOX21_FXR_BLA_Antagonist_ch1>  (42) 
1.0

>  <TOX21_FXR_BLA_Antagonist_ch2>  (42) 
1.0

>  <TOX21_FXR_BLA_agonist_ch1>  (42) 
0.0

>  <TOX21_FXR_BLA_agonist_ch2>  (42) 
0.0

>  <TOX21_FXR_BLA_agonist_ratio>  (42) 
0.0

>  <TOX21_FXR_BLA_agonist_viability>  (42) 
0.0

>  <TOX21_FXR_BLA_antagonist_ratio>  (42) 
1.0

>  <TOX21_FXR_BLA_antagonist_viability>  (42) 
0.0

>  <TOX21_GR_BLA_Agonist_ch1>  (42) 
0.0

>  <TOX21_GR_BLA_Agonist_ch2>  (42) 
0.0

>  <TOX21_GR_BLA_Agonist_ratio>  (42) 
0.0

>  <TOX21_GR_BLA_Antagonist_ch1>  (42) 
0.0

>  <TOX21_GR_BLA_Antagonist_ch2>  (42) 
1.0

>  <TOX21_GR_BLA_Antagonist_ratio>  (42) 
1.0

>  <TOX21_GR_BLA_Antagonist_viability>  (42) 
1.0

>  <TOX21_H2AX_HTRF_CHO_Agonist_ch1>  (42) 
0.0

>  <TOX21_H2AX_HTRF_CHO_Agonist_ch2>  (42) 
0.0

>  <TOX21_H2AX_HTRF_CHO_Agonist_ratio>  (42) 
0.0

>  <TOX21_H2AX_HTRF_CHO_viability>  (42) 
0.0

>  <TOX21_HDAC_Inhibition>  (42) 
0.0

>  <TOX21_HDAC_Inhibition_viability>  (42) 
0.0

>  <TOX21_HRE_BLA_Agonist_ch1>  (42) 
0.0

>  <TOX21_HRE_BLA_Agonist_ch2>  (42) 
0.0

>  <TOX21_HRE_BLA_Agonist_ratio>  (42) 
0.0

>  <TOX21_HRE_BLA_Agonist_viability>  (42) 
1.0

>  <TOX21_HSE_BLA_agonist_ch1>  (42) 
0.0

>  <TOX21_HSE_BLA_agonist_ch2>  (42) 
0.0

>  <TOX21_HSE_BLA_agonist_ratio>  (42) 
0.0

>  <TOX21_HSE_BLA_agonist_viability>  (42) 
0.0

>  <TOX21_LUC_Biochem>  (42) 
0.0

>  <TOX21_MMP_fitc>  (42) 
0.0

>  <TOX21_MMP_ratio_down>  (42) 
1.0

>  <TOX21_MMP_ratio_up>  (42) 
0.0

>  <TOX21_MMP_rhodamine>  (42) 
1.0

>  <TOX21_MMP_viability>  (42) 
0.0

>  <TOX21_NFkB_BLA_agonist_ch1>  (42) 
0.0

>  <TOX21_NFkB_BLA_agonist_ch2>  (42) 
0.0

>  <TOX21_NFkB_BLA_agonist_ratio>  (42) 
0.0

>  <TOX21_NFkB_BLA_agonist_viability>  (42) 
0.0

>  <TOX21_PGC_ERR_Agonist>  (42) 
0.0

>  <TOX21_PGC_ERR_Antagonist>  (42) 
1.0

>  <TOX21_PGC_ERR_viability>  (42) 
1.0

>  <TOX21_PPARd_BLA_Agonist_viability>  (42) 
0.0

>  <TOX21_PPARd_BLA_Antagonist_ch1>  (42) 
0.0

>  <TOX21_PPARd_BLA_Antagonist_ch2>  (42) 
0.0

>  <TOX21_PPARd_BLA_agonist_ch1>  (42) 
0.0

>  <TOX21_PPARd_BLA_agonist_ch2>  (42) 
0.0

>  <TOX21_PPARd_BLA_agonist_ratio>  (42) 
0.0

>  <TOX21_PPARd_BLA_antagonist_ratio>  (42) 
0.0

>  <TOX21_PPARd_BLA_antagonist_viability>  (42) 
0.0

>  <TOX21_PPARg_BLA_Agonist_ch1>  (42) 
0.0

>  <TOX21_PPARg_BLA_Agonist_ch2>  (42) 
0.0

>  <TOX21_PPARg_BLA_Agonist_ratio>  (42) 
0.0

>  <TOX21_PPARg_BLA_Antagonist_ch1>  (42) 
0.0

>  <TOX21_PPARg_BLA_Antagonist_ch2>  (42) 
0.0

>  <TOX21_PPARg_BLA_antagonist_ratio>  (42) 
1.0

>  <TOX21_PPARg_BLA_antagonist_viability>  (42) 
0.0

>  <TOX21_PR_BLA_Agonist_ch1>  (42) 
0.0

>  <TOX21_PR_BLA_Agonist_ch2>  (42) 
1.0

>  <TOX21_PR_BLA_Agonist_ratio>  (42) 
1.0

>  <TOX21_PR_BLA_Antagonist_ch1>  (42) 
1.0

>  <TOX21_PR_BLA_Antagonist_ch2>  (42) 
1.0

>  <TOX21_PR_BLA_Antagonist_ratio>  (42) 
1.0

>  <TOX21_PR_BLA_Antagonist_viability>  (42) 
0.0

>  <TOX21_PR_BLA_Followup_Agonist_ch1>  (42) 
0.0

>  <TOX21_PR_BLA_Followup_Agonist_ch2>  (42) 
1.0

>  <TOX21_PR_BLA_Followup_Agonist_ratio>  (42) 
1.0

>  <TOX21_PR_BLA_Followup_Agonist_viability>  (42) 
0.0

>  <TOX21_PR_BLA_Followup_Antagonist_ch1>  (42) 
0.0

>  <TOX21_PR_BLA_Followup_Antagonist_ch2>  (42) 
0.0

>  <TOX21_PR_BLA_Followup_Antagonist_ratio>  (42) 
1.0

>  <TOX21_PR_BLA_Followup_Antagonist_viability>  (42) 
0.0

>  <TOX21_PR_LUC_Followup_Agonist>  (42) 
1.0

>  <TOX21_PR_LUC_Followup_Agonist_viability>  (42) 
0.0

>  <TOX21_PR_LUC_Followup_Antagonist>  (42) 
1.0

>  <TOX21_PR_LUC_Followup_Antagonist_viability>  (42) 
0.0

>  <TOX21_PXR_Agonist>  (42) 
0.0

>  <TOX21_PXR_viability>  (42) 
1.0

>  <TOX21_RAR_LUC_Agonist>  (42) 
0.0

>  <TOX21_RAR_LUC_Agonist_viability>  (42) 
0.0

>  <TOX21_RAR_LUC_Antagonist_viability>  (42) 
0.0

>  <TOX21_RORg_LUC_CHO_Antagonist>  (42) 
1.0

>  <TOX21_RORg_LUC_CHO_Antagonist_viability>  (42) 
0.0

>  <TOX21_RT_HEK293_FLO_00hr_viability>  (42) 
0.0

>  <TOX21_RT_HEK293_FLO_08hr_viability>  (42) 
0.0

>  <TOX21_RT_HEK293_FLO_16hr_viability>  (42) 
1.0

>  <TOX21_RT_HEK293_FLO_24hr_viability>  (42) 
1.0

>  <TOX21_RT_HEK293_FLO_32hr_viability>  (42) 
1.0

>  <TOX21_RT_HEK293_FLO_40hr_viability>  (42) 
1.0

>  <TOX21_RT_HEK293_GLO_00hr_viability>  (42) 
0.0

>  <TOX21_RT_HEK293_GLO_08hr_viability>  (42) 
0.0

>  <TOX21_RT_HEK293_GLO_16hr_viability>  (42) 
1.0

>  <TOX21_RT_HEK293_GLO_24hr_viability>  (42) 
1.0

>  <TOX21_RT_HEK293_GLO_32hr_viability>  (42) 
1.0

>  <TOX21_RT_HEK293_GLO_40hr_viability>  (42) 
1.0

>  <TOX21_RT_HEPG2_FLO_00hr_ctrl_viability>  (42) 
0.0

>  <TOX21_RT_HEPG2_FLO_08hr_viability>  (42) 
0.0

>  <TOX21_RT_HEPG2_FLO_16hr_ctrl_viability>  (42) 
0.0

>  <TOX21_RT_HEPG2_FLO_24hr_viability>  (42) 
1.0

>  <TOX21_RT_HEPG2_FLO_32hr_ctrl_viability>  (42) 
1.0

>  <TOX21_RT_HEPG2_GLO_00hr_ctrl_viability>  (42) 
0.0

>  <TOX21_RT_HEPG2_GLO_08hr_ctrl_viability>  (42) 
0.0

>  <TOX21_RT_HEPG2_GLO_16hr_ctrl_viability>  (42) 
0.0

>  <TOX21_RT_HEPG2_GLO_24hr_ctrl_viability>  (42) 
0.0

>  <TOX21_RT_HEPG2_GLO_32hr_ctrl_viability>  (42) 
0.0

>  <TOX21_RT_HEPG2_GLO_40hr_viability>  (42) 
0.0

>  <TOX21_RXR_BLA_Agonist_ch1>  (42) 
0.0

>  <TOX21_RXR_BLA_Agonist_ch2>  (42) 
0.0

>  <TOX21_RXR_BLA_Agonist_ratio>  (42) 
0.0

>  <TOX21_RXR_BLA_Agonist_viability>  (42) 
0.0

>  <TOX21_SBE_BLA_Agonist_ch1>  (42) 
0.0

>  <TOX21_SBE_BLA_Agonist_ch2>  (42) 
0.0

>  <TOX21_SBE_BLA_Agonist_ratio>  (42) 
0.0

>  <TOX21_SBE_BLA_Agonist_viability>  (42) 
0.0

>  <TOX21_SBE_BLA_Antagonist_ch1>  (42) 
0.0

>  <TOX21_SBE_BLA_Antagonist_ch2>  (42) 
1.0

>  <TOX21_SBE_BLA_Antagonist_ratio>  (42) 
1.0

>  <TOX21_SBE_BLA_Antagonist_viability>  (42) 
0.0

>  <TOX21_SSH_3T3_GLI3_Agonist>  (42) 
0.0

>  <TOX21_SSH_3T3_GLI3_Agonist_viability>  (42) 
0.0

>  <TOX21_SSH_3T3_GLI3_Antagonist>  (42) 
1.0

>  <TOX21_SSH_3T3_GLI3_Antagonist_viability>  (42) 
0.0

>  <TOX21_TRHR_HEK293_Agonist>  (42) 
0.0

>  <TOX21_TRHR_HEK293_Antagonist>  (42) 
0.0

>  <TOX21_TR_LUC_GH3_Agonist>  (42) 
0.0

>  <TOX21_TR_LUC_GH3_Antagonist>  (42) 
1.0

>  <TOX21_TR_LUC_GH3_Antagonist_viability>  (42) 
0.0

>  <TOX21_TSHR_Agonist_ch2>  (42) 
0.0

>  <TOX21_TSHR_Antagonist_ch2>  (42) 
0.0

>  <TOX21_TSHR_Antagonist_ratio>  (42) 
1.0

>  <TOX21_TSHR_HTRF_Agonist_ch1>  (42) 
0.0

>  <TOX21_TSHR_HTRF_Antagonist_ch1>  (42) 
1.0

>  <TOX21_TSHR_wt_HTRF_ch1>  (42) 
0.0

>  <TOX21_TSHR_wt_ch2>  (42) 
0.0

>  <TOX21_TSHR_wt_ratio>  (42) 
0.0

>  <TOX21_VDR_BLA_Agonist_viability>  (42) 
0.0

>  <TOX21_VDR_BLA_Antagonist_ch1>  (42) 
0.0

>  <TOX21_VDR_BLA_Antagonist_ch2>  (42) 
0.0

>  <TOX21_VDR_BLA_agonist_ch1>  (42) 
0.0

>  <TOX21_VDR_BLA_agonist_ch2>  (42) 
0.0

>  <TOX21_VDR_BLA_agonist_ratio>  (42) 
0.0

>  <TOX21_VDR_BLA_antagonist_ratio>  (42) 
0.0

>  <TOX21_VDR_BLA_antagonist_viability>  (42) 
0.0

>  <TOX21_p53_BLA_p1_ch1>  (42) 
0.0

>  <TOX21_p53_BLA_p1_ch2>  (42) 
1.0

>  <TOX21_p53_BLA_p1_ratio>  (42) 
1.0

>  <TOX21_p53_BLA_p1_viability>  (42) 
0.0

>  <TOX21_p53_BLA_p2_ch1>  (42) 
0.0

>  <TOX21_p53_BLA_p2_ch2>  (42) 
1.0

>  <TOX21_p53_BLA_p2_ratio>  (42) 
1.0

>  <TOX21_p53_BLA_p2_viability>  (42) 
0.0

>  <TOX21_p53_BLA_p3_ch1>  (42) 
0.0

>  <TOX21_p53_BLA_p3_ch2>  (42) 
1.0

>  <TOX21_p53_BLA_p3_ratio>  (42) 
1.0

>  <TOX21_p53_BLA_p4_ch1>  (42) 
0.0

>  <TOX21_p53_BLA_p4_ch2>  (42) 
1.0

>  <TOX21_p53_BLA_p4_ratio>  (42) 
1.0

>  <TOX21_p53_BLA_p4_viability>  (42) 
0.0

>  <TOX21_p53_BLA_p5_ch1>  (42) 
0.0

>  <TOX21_p53_BLA_p5_ch2>  (42) 
1.0

>  <TOX21_p53_BLA_p5_ratio>  (42) 
1.0

>  <TOX21_p53_BLA_p5_viability>  (42) 
0.0

>  <Tanguay_ZF_120hpf_AXIS_up>  (42) 
0.0

>  <Tanguay_ZF_120hpf_ActivityScore>  (42) 
0.0

>  <Tanguay_ZF_120hpf_BRAI_up>  (42) 
0.0

>  <Tanguay_ZF_120hpf_CFIN_up>  (42) 
0.0

>  <Tanguay_ZF_120hpf_CIRC_up>  (42) 
0.0

>  <Tanguay_ZF_120hpf_EYE_up>  (42) 
0.0

>  <Tanguay_ZF_120hpf_JAW_up>  (42) 
0.0

>  <Tanguay_ZF_120hpf_MORT_up>  (42) 
0.0

>  <Tanguay_ZF_120hpf_NC_up>  (42) 
0.0

>  <Tanguay_ZF_120hpf_OTIC_up>  (42) 
0.0

>  <Tanguay_ZF_120hpf_PE_up>  (42) 
0.0

>  <Tanguay_ZF_120hpf_PFIN_up>  (42) 
0.0

>  <Tanguay_ZF_120hpf_PIG_up>  (42) 
0.0

>  <Tanguay_ZF_120hpf_SNOU_up>  (42) 
0.0

>  <Tanguay_ZF_120hpf_SOMI_up>  (42) 
0.0

>  <Tanguay_ZF_120hpf_SWIM_up>  (42) 
0.0

>  <Tanguay_ZF_120hpf_TRUN_up>  (42) 
0.0

>  <Tanguay_ZF_120hpf_TR_up>  (42) 
0.0

>  <Tanguay_ZF_120hpf_YSE_up>  (42) 
0.0

>  <UPITT_HCI_U2OS_AR_TIF2_Nucleoli_Agonist>  (42) 
1.0

>  <UPITT_HCI_U2OS_AR_TIF2_Nucleoli_Antagonist>  (42) 
1.0

>  <UPITT_HCI_U2OS_AR_TIF2_Nucleoli_Cytoplasm_Ratio_Agonist>  (42) 
1.0

>  <UPITT_HCI_U2OS_AR_TIF2_Nucleoli_Cytoplasm_Ratio_Antagonist>  (42) 
0.0

>  <NVS_NR_mERa>  (42) 
1.0

$$$$
